
*** ChampSim Multicore Out-of-Order Simulator ***

Warmup Instructions: 25000000
Simulation Instructions: 50000000
Number of CPUs: 1
LLC sets: 2048
LLC ways: 16
Off-chip DRAM Size: 4096 MB Channels: 1 Width: 64-bit Data Rate: 3200 MT/s

CPU 0 runs ../traces//482.sphinx3-1100B.champsimtrace.xz
CPU 0 Bimodal branch predictor
Heartbeat CPU 0 instructions: 10000001 cycles: 3439522 heartbeat IPC: 2.90738 cumulative IPC: 2.90738 (Simulation time: 0 hr 0 min 11 sec) 
Heartbeat CPU 0 instructions: 20000002 cycles: 6853463 heartbeat IPC: 2.92917 cumulative IPC: 2.91823 (Simulation time: 0 hr 0 min 23 sec) 

Warmup complete CPU 0 instructions: 25000003 cycles: 8565461 (Simulation time: 0 hr 0 min 29 sec) 

Heartbeat CPU 0 instructions: 30000000 cycles: 13245378 heartbeat IPC: 1.56448 cumulative IPC: 1.06839 (Simulation time: 0 hr 0 min 34 sec) 
Heartbeat CPU 0 instructions: 40000001 cycles: 22873527 heartbeat IPC: 1.03862 cumulative IPC: 1.04836 (Simulation time: 0 hr 0 min 45 sec) 
Heartbeat CPU 0 instructions: 50000000 cycles: 33318929 heartbeat IPC: 0.957359 cumulative IPC: 1.00996 (Simulation time: 0 hr 0 min 57 sec) 
Heartbeat CPU 0 instructions: 60000001 cycles: 42617735 heartbeat IPC: 1.07541 cumulative IPC: 1.02783 (Simulation time: 0 hr 1 min 8 sec) 
Heartbeat CPU 0 instructions: 70000000 cycles: 52716537 heartbeat IPC: 0.990216 cumulative IPC: 1.01923 (Simulation time: 0 hr 1 min 19 sec) 
Finished CPU 0 instructions: 50000000 cycles: 49202241 cumulative IPC: 1.01621 (Simulation time: 0 hr 1 min 24 sec) 

ChampSim completed all CPUs

Region of Interest Statistics

CPU 0 cumulative IPC: 1.01621 instructions: 50000000 cycles: 49202241
L1D TOTAL     ACCESS:    9627169  HIT:    8893486  MISS:     733683
L1D LOAD      ACCESS:    8849896  HIT:    8152126  MISS:     697770
L1D RFO       ACCESS:     777273  HIT:     741360  MISS:      35913
L1D PREFETCH  ACCESS:          0  HIT:          0  MISS:          0
L1D WRITEBACK ACCESS:          0  HIT:          0  MISS:          0
L1D PREFETCH  REQUESTED:          0  ISSUED:          0  USEFUL:          0  USELESS:          0
L1D AVERAGE MISS LATENCY: 55.7857 cycles
L1I TOTAL     ACCESS:    9904588  HIT:    9904334  MISS:        254
L1I LOAD      ACCESS:    9904588  HIT:    9904334  MISS:        254
L1I RFO       ACCESS:          0  HIT:          0  MISS:          0
L1I PREFETCH  ACCESS:          0  HIT:          0  MISS:          0
L1I WRITEBACK ACCESS:          0  HIT:          0  MISS:          0
L1I PREFETCH  REQUESTED:          0  ISSUED:          0  USEFUL:          0  USELESS:          0
L1I AVERAGE MISS LATENCY: 153.945 cycles
L2C TOTAL     ACCESS:    1338075  HIT:     661731  MISS:     676344
L2C LOAD      ACCESS:     698024  HIT:     478211  MISS:     219813
L2C RFO       ACCESS:      35911  HIT:       3394  MISS:      32517
L2C PREFETCH  ACCESS:     546258  HIT:     122375  MISS:     423883
L2C WRITEBACK ACCESS:      57882  HIT:      57751  MISS:        131
L2C PREFETCH  REQUESTED:     675362  ISSUED:     675362  USEFUL:     365408  USELESS:      58012
L2C AVERAGE MISS LATENCY: 145.362 cycles
LLC TOTAL     ACCESS:     726033  HIT:      90373  MISS:     635660
LLC LOAD      ACCESS:     105154  HIT:      19054  MISS:      86100
LLC RFO       ACCESS:      32517  HIT:       5239  MISS:      27278
LLC PREFETCH  ACCESS:     539316  HIT:      18120  MISS:     521196
LLC WRITEBACK ACCESS:      49046  HIT:      47960  MISS:       1086
LLC PREFETCH  REQUESTED:          0  ISSUED:          0  USEFUL:       5787  USELESS:     517526
LLC AVERAGE MISS LATENCY: 145.838 cycles
Major fault: 0 Minor fault: 2573

DRAM Statistics
 CHANNEL 0
 RQ ROW_BUFFER_HIT:     371995  ROW_BUFFER_MISS:     262577
 DBUS_CONGESTED:      84346
 WQ ROW_BUFFER_HIT:      22215  ROW_BUFFER_MISS:      23778  FULL:          0

 AVG_CONGESTED_CYCLE: 5

CPU 0 Branch Prediction Accuracy: 95.8349% MPKI: 3.84708 Average ROB Occupancy at Mispredict: 76.9218

Branch types
NOT_BRANCH: 45381775 90.7635%
BRANCH_DIRECT_JUMP: 87425 0.17485%
BRANCH_INDIRECT: 0 0%
BRANCH_CONDITIONAL: 4356853 8.71371%
BRANCH_DIRECT_CALL: 86974 0.173948%
BRANCH_INDIRECT_CALL: 8 1.6e-05%
BRANCH_RETURN: 86983 0.173966%
BRANCH_OTHER: 0 0%

