
*** ChampSim Multicore Out-of-Order Simulator ***

Warmup Instructions: 30000000
Simulation Instructions: 30000000
Number of CPUs: 1
LLC sets: 2048
LLC ways: 16
Off-chip DRAM Size: 4096 MB Channels: 1 Width: 64-bit Data Rate: 3200 MT/s

CPU 0 runs ../traces//sssp-10.trace.gz
CPU 0 Bimodal branch predictor
Initialize Hawkeye state
misses per kilo : 1000 : 1000
misses per kilo : 2000 : 1000
misses per kilo : 3000 : 1000
misses per kilo : 4000 : 1000
misses per kilo : 5000 : 1000
misses per kilo : 6000 : 999
misses per kilo : 7000 : 986
misses per kilo : 8000 : 957
misses per kilo : 9000 : 784
misses per kilo : 10000 : 500
misses per kilo : 11000 : 500
misses per kilo : 12000 : 500
misses per kilo : 13000 : 500
misses per kilo : 14000 : 500
misses per kilo : 15000 : 500
misses per kilo : 16000 : 500
misses per kilo : 17000 : 500
misses per kilo : 18000 : 500
misses per kilo : 19000 : 500
misses per kilo : 20000 : 500
misses per kilo : 21000 : 500
misses per kilo : 22000 : 500
misses per kilo : 23000 : 500
misses per kilo : 24000 : 500
misses per kilo : 25000 : 500
misses per kilo : 26000 : 500
misses per kilo : 27000 : 500
misses per kilo : 28000 : 500
misses per kilo : 29000 : 500
misses per kilo : 30000 : 500
misses per kilo : 31000 : 500
misses per kilo : 32000 : 500
misses per kilo : 33000 : 500
misses per kilo : 34000 : 500
misses per kilo : 35000 : 500
misses per kilo : 36000 : 500
misses per kilo : 37000 : 500
misses per kilo : 38000 : 500
misses per kilo : 39000 : 500
misses per kilo : 40000 : 500
misses per kilo : 41000 : 500
misses per kilo : 42000 : 500
misses per kilo : 43000 : 500
misses per kilo : 44000 : 500
misses per kilo : 45000 : 500
misses per kilo : 46000 : 500
misses per kilo : 47000 : 500
misses per kilo : 48000 : 500
misses per kilo : 49000 : 500
misses per kilo : 50000 : 500
misses per kilo : 51000 : 500
misses per kilo : 52000 : 500
misses per kilo : 53000 : 500
misses per kilo : 54000 : 500
misses per kilo : 55000 : 500
misses per kilo : 56000 : 500
misses per kilo : 57000 : 500
misses per kilo : 58000 : 558
misses per kilo : 59000 : 500
misses per kilo : 60000 : 628
misses per kilo : 61000 : 512
misses per kilo : 62000 : 1000
misses per kilo : 63000 : 872
misses per kilo : 64000 : 1000
misses per kilo : 65000 : 1000
misses per kilo : 66000 : 1000
misses per kilo : 67000 : 1000
misses per kilo : 68000 : 1000
misses per kilo : 69000 : 1000
misses per kilo : 70000 : 1000
misses per kilo : 71000 : 1000
misses per kilo : 72000 : 1000
misses per kilo : 73000 : 1000
misses per kilo : 74000 : 1000
misses per kilo : 75000 : 1000
misses per kilo : 76000 : 1000
misses per kilo : 77000 : 1000
misses per kilo : 78000 : 1000
misses per kilo : 79000 : 1000
misses per kilo : 80000 : 1000
misses per kilo : 81000 : 1000
misses per kilo : 82000 : 1000
misses per kilo : 83000 : 1000
misses per kilo : 84000 : 1000
misses per kilo : 85000 : 1000
misses per kilo : 86000 : 1000
misses per kilo : 87000 : 1000
misses per kilo : 88000 : 1000
misses per kilo : 89000 : 1000
misses per kilo : 90000 : 1000
misses per kilo : 91000 : 1000
misses per kilo : 92000 : 1000
misses per kilo : 93000 : 1000
misses per kilo : 94000 : 1000
misses per kilo : 95000 : 1000
misses per kilo : 96000 : 1000
misses per kilo : 97000 : 1000
misses per kilo : 98000 : 1000
misses per kilo : 99000 : 1000
misses per kilo : 100000 : 1000
misses per kilo : 101000 : 1000
misses per kilo : 102000 : 1000
misses per kilo : 103000 : 1000
misses per kilo : 104000 : 1000
misses per kilo : 105000 : 1000
misses per kilo : 106000 : 1000
misses per kilo : 107000 : 1000
misses per kilo : 108000 : 1000
misses per kilo : 109000 : 1000
misses per kilo : 110000 : 1000
misses per kilo : 111000 : 1000
misses per kilo : 112000 : 1000
misses per kilo : 113000 : 1000
misses per kilo : 114000 : 1000
misses per kilo : 115000 : 1000
misses per kilo : 116000 : 1000
misses per kilo : 117000 : 1000
misses per kilo : 118000 : 1000
misses per kilo : 119000 : 1000
misses per kilo : 120000 : 1000
misses per kilo : 121000 : 1000
misses per kilo : 122000 : 1000
misses per kilo : 123000 : 1000
misses per kilo : 124000 : 945
misses per kilo : 125000 : 652
misses per kilo : 126000 : 608
misses per kilo : 127000 : 614
misses per kilo : 128000 : 602
misses per kilo : 129000 : 605
misses per kilo : 130000 : 599
misses per kilo : 131000 : 589
misses per kilo : 132000 : 605
misses per kilo : 133000 : 578
misses per kilo : 134000 : 572
misses per kilo : 135000 : 734
misses per kilo : 136000 : 916
misses per kilo : 137000 : 882
misses per kilo : 138000 : 869
misses per kilo : 139000 : 781
misses per kilo : 140000 : 761
misses per kilo : 141000 : 736
misses per kilo : 142000 : 705
misses per kilo : 143000 : 662
misses per kilo : 144000 : 625
misses per kilo : 145000 : 594
misses per kilo : 146000 : 595
misses per kilo : 147000 : 572
misses per kilo : 148000 : 541
misses per kilo : 149000 : 457
misses per kilo : 150000 : 255
misses per kilo : 151000 : 125
misses per kilo : 152000 : 103
misses per kilo : 153000 : 245
misses per kilo : 154000 : 404
misses per kilo : 155000 : 418
misses per kilo : 156000 : 457
misses per kilo : 157000 : 485
misses per kilo : 158000 : 221
misses per kilo : 159000 : 394
misses per kilo : 160000 : 349
misses per kilo : 161000 : 277
misses per kilo : 162000 : 293
misses per kilo : 163000 : 305
misses per kilo : 164000 : 300
misses per kilo : 165000 : 411
misses per kilo : 166000 : 217
misses per kilo : 167000 : 398
misses per kilo : 168000 : 316
misses per kilo : 169000 : 316
misses per kilo : 170000 : 289
misses per kilo : 171000 : 401
misses per kilo : 172000 : 323
misses per kilo : 173000 : 259
misses per kilo : 174000 : 388
misses per kilo : 175000 : 335
misses per kilo : 176000 : 353
misses per kilo : 177000 : 167
misses per kilo : 178000 : 211
misses per kilo : 179000 : 387
misses per kilo : 180000 : 364
misses per kilo : 181000 : 371
misses per kilo : 182000 : 356
misses per kilo : 183000 : 349
misses per kilo : 184000 : 355
misses per kilo : 185000 : 345
misses per kilo : 186000 : 294
misses per kilo : 187000 : 177
misses per kilo : 188000 : 142
misses per kilo : 189000 : 210
misses per kilo : 190000 : 241
misses per kilo : 191000 : 286
misses per kilo : 192000 : 363
misses per kilo : 193000 : 339
misses per kilo : 194000 : 382
misses per kilo : 195000 : 363
misses per kilo : 196000 : 352
misses per kilo : 197000 : 343
misses per kilo : 198000 : 355
misses per kilo : 199000 : 328
misses per kilo : 200000 : 356
misses per kilo : 201000 : 351
misses per kilo : 202000 : 354
misses per kilo : 203000 : 360
misses per kilo : 204000 : 317
misses per kilo : 205000 : 289
misses per kilo : 206000 : 303
misses per kilo : 207000 : 255
misses per kilo : 208000 : 353
misses per kilo : 209000 : 316
misses per kilo : 210000 : 300
misses per kilo : 211000 : 297
misses per kilo : 212000 : 271
misses per kilo : 213000 : 329
misses per kilo : 214000 : 328
misses per kilo : 215000 : 318
misses per kilo : 216000 : 237
misses per kilo : 217000 : 329
misses per kilo : 218000 : 343
misses per kilo : 219000 : 311
misses per kilo : 220000 : 329
misses per kilo : 221000 : 325
misses per kilo : 222000 : 307
misses per kilo : 223000 : 319
misses per kilo : 224000 : 326
misses per kilo : 225000 : 326
misses per kilo : 226000 : 303
misses per kilo : 227000 : 320
misses per kilo : 228000 : 324
misses per kilo : 229000 : 318
misses per kilo : 230000 : 327
misses per kilo : 231000 : 299
misses per kilo : 232000 : 326
misses per kilo : 233000 : 306
misses per kilo : 234000 : 335
misses per kilo : 235000 : 318
misses per kilo : 236000 : 316
misses per kilo : 237000 : 312
misses per kilo : 238000 : 300
misses per kilo : 239000 : 325
misses per kilo : 240000 : 307
misses per kilo : 241000 : 342
misses per kilo : 242000 : 312
misses per kilo : 243000 : 304
misses per kilo : 244000 : 318
misses per kilo : 245000 : 314
misses per kilo : 246000 : 306
misses per kilo : 247000 : 326
misses per kilo : 248000 : 316
misses per kilo : 249000 : 320
misses per kilo : 250000 : 311
misses per kilo : 251000 : 319
misses per kilo : 252000 : 314
misses per kilo : 253000 : 331
misses per kilo : 254000 : 327
misses per kilo : 255000 : 272
misses per kilo : 256000 : 282
misses per kilo : 257000 : 282
misses per kilo : 258000 : 337
misses per kilo : 259000 : 325
misses per kilo : 260000 : 313
misses per kilo : 261000 : 313
misses per kilo : 262000 : 316
misses per kilo : 263000 : 323
misses per kilo : 264000 : 349
misses per kilo : 265000 : 326
misses per kilo : 266000 : 307
misses per kilo : 267000 : 296
misses per kilo : 268000 : 310
misses per kilo : 269000 : 310
misses per kilo : 270000 : 303
misses per kilo : 271000 : 302
misses per kilo : 272000 : 268
misses per kilo : 273000 : 265
misses per kilo : 274000 : 282
misses per kilo : 275000 : 281
misses per kilo : 276000 : 313
misses per kilo : 277000 : 336
misses per kilo : 278000 : 347
misses per kilo : 279000 : 309
misses per kilo : 280000 : 287
misses per kilo : 281000 : 320
misses per kilo : 282000 : 317
misses per kilo : 283000 : 296
misses per kilo : 284000 : 322
misses per kilo : 285000 : 329
misses per kilo : 286000 : 343
misses per kilo : 287000 : 304
misses per kilo : 288000 : 301
misses per kilo : 289000 : 295
misses per kilo : 290000 : 332
misses per kilo : 291000 : 340
misses per kilo : 292000 : 279
misses per kilo : 293000 : 295
misses per kilo : 294000 : 305
misses per kilo : 295000 : 275
misses per kilo : 296000 : 313
misses per kilo : 297000 : 328
misses per kilo : 298000 : 321
misses per kilo : 299000 : 357
misses per kilo : 300000 : 358
misses per kilo : 301000 : 312
misses per kilo : 302000 : 314
misses per kilo : 303000 : 333
misses per kilo : 304000 : 347
misses per kilo : 305000 : 347
misses per kilo : 306000 : 315
misses per kilo : 307000 : 326
misses per kilo : 308000 : 313
misses per kilo : 309000 : 313
misses per kilo : 310000 : 326
misses per kilo : 311000 : 326
misses per kilo : 312000 : 309
misses per kilo : 313000 : 308
misses per kilo : 314000 : 309
misses per kilo : 315000 : 291
misses per kilo : 316000 : 333
misses per kilo : 317000 : 315
misses per kilo : 318000 : 349
misses per kilo : 319000 : 315
misses per kilo : 320000 : 282
misses per kilo : 321000 : 302
misses per kilo : 322000 : 333
misses per kilo : 323000 : 313
misses per kilo : 324000 : 360
misses per kilo : 325000 : 318
misses per kilo : 326000 : 310
misses per kilo : 327000 : 303
misses per kilo : 328000 : 335
misses per kilo : 329000 : 330
misses per kilo : 330000 : 342
misses per kilo : 331000 : 317
misses per kilo : 332000 : 336
misses per kilo : 333000 : 339
misses per kilo : 334000 : 312
misses per kilo : 335000 : 333
misses per kilo : 336000 : 352
misses per kilo : 337000 : 316
misses per kilo : 338000 : 314
misses per kilo : 339000 : 322
misses per kilo : 340000 : 321
misses per kilo : 341000 : 324
misses per kilo : 342000 : 303
misses per kilo : 343000 : 334
misses per kilo : 344000 : 342
misses per kilo : 345000 : 303
misses per kilo : 346000 : 306
misses per kilo : 347000 : 301
misses per kilo : 348000 : 305
misses per kilo : 349000 : 280
misses per kilo : 350000 : 320
misses per kilo : 351000 : 310
misses per kilo : 352000 : 339
misses per kilo : 353000 : 337
misses per kilo : 354000 : 341
misses per kilo : 355000 : 310
misses per kilo : 356000 : 326
misses per kilo : 357000 : 357
misses per kilo : 358000 : 319
misses per kilo : 359000 : 340
misses per kilo : 360000 : 367
misses per kilo : 361000 : 374
misses per kilo : 362000 : 297
misses per kilo : 363000 : 303
misses per kilo : 364000 : 326
misses per kilo : 365000 : 327
misses per kilo : 366000 : 340
misses per kilo : 367000 : 361
misses per kilo : 368000 : 371
misses per kilo : 369000 : 369
misses per kilo : 370000 : 326
misses per kilo : 371000 : 332
misses per kilo : 372000 : 311
misses per kilo : 373000 : 285
misses per kilo : 374000 : 343
misses per kilo : 375000 : 325
misses per kilo : 376000 : 337
misses per kilo : 377000 : 334
misses per kilo : 378000 : 332
misses per kilo : 379000 : 312
misses per kilo : 380000 : 320
misses per kilo : 381000 : 353
misses per kilo : 382000 : 350
misses per kilo : 383000 : 337
misses per kilo : 384000 : 365
misses per kilo : 385000 : 353
misses per kilo : 386000 : 312
misses per kilo : 387000 : 315
misses per kilo : 388000 : 397
misses per kilo : 389000 : 345
misses per kilo : 390000 : 332
misses per kilo : 391000 : 336
misses per kilo : 392000 : 348
misses per kilo : 393000 : 333
misses per kilo : 394000 : 385
misses per kilo : 395000 : 347
misses per kilo : 396000 : 393
misses per kilo : 397000 : 327
misses per kilo : 398000 : 316
misses per kilo : 399000 : 315
misses per kilo : 400000 : 330
misses per kilo : 401000 : 342
misses per kilo : 402000 : 411
misses per kilo : 403000 : 365
misses per kilo : 404000 : 335
misses per kilo : 405000 : 338
misses per kilo : 406000 : 385
misses per kilo : 407000 : 340
misses per kilo : 408000 : 316
misses per kilo : 409000 : 376
misses per kilo : 410000 : 325
misses per kilo : 411000 : 326
misses per kilo : 412000 : 330
misses per kilo : 413000 : 318
misses per kilo : 414000 : 343
misses per kilo : 415000 : 325
misses per kilo : 416000 : 341
misses per kilo : 417000 : 395
misses per kilo : 418000 : 391
misses per kilo : 419000 : 365
misses per kilo : 420000 : 349
misses per kilo : 421000 : 355
misses per kilo : 422000 : 355
misses per kilo : 423000 : 338
misses per kilo : 424000 : 342
misses per kilo : 425000 : 330
misses per kilo : 426000 : 388
misses per kilo : 427000 : 338
misses per kilo : 428000 : 319
misses per kilo : 429000 : 333
misses per kilo : 430000 : 345
misses per kilo : 431000 : 352
misses per kilo : 432000 : 376
misses per kilo : 433000 : 348
misses per kilo : 434000 : 296
misses per kilo : 435000 : 290
misses per kilo : 436000 : 293
misses per kilo : 437000 : 351
misses per kilo : 438000 : 348
misses per kilo : 439000 : 359
misses per kilo : 440000 : 306
misses per kilo : 441000 : 365
misses per kilo : 442000 : 309
misses per kilo : 443000 : 319
misses per kilo : 444000 : 364
misses per kilo : 445000 : 341
misses per kilo : 446000 : 327
misses per kilo : 447000 : 325
misses per kilo : 448000 : 333
misses per kilo : 449000 : 329
misses per kilo : 450000 : 332
misses per kilo : 451000 : 400
misses per kilo : 452000 : 331
misses per kilo : 453000 : 357
misses per kilo : 454000 : 335
misses per kilo : 455000 : 356
misses per kilo : 456000 : 318
misses per kilo : 457000 : 318
misses per kilo : 458000 : 321
misses per kilo : 459000 : 370
misses per kilo : 460000 : 332
misses per kilo : 461000 : 314
misses per kilo : 462000 : 324
misses per kilo : 463000 : 346
misses per kilo : 464000 : 375
misses per kilo : 465000 : 335
misses per kilo : 466000 : 322
misses per kilo : 467000 : 348
misses per kilo : 468000 : 339
misses per kilo : 469000 : 326
misses per kilo : 470000 : 382
misses per kilo : 471000 : 413
misses per kilo : 472000 : 354
misses per kilo : 473000 : 340
misses per kilo : 474000 : 350
misses per kilo : 475000 : 367
misses per kilo : 476000 : 359
misses per kilo : 477000 : 360
misses per kilo : 478000 : 353
misses per kilo : 479000 : 345
misses per kilo : 480000 : 431
misses per kilo : 481000 : 378
misses per kilo : 482000 : 385
misses per kilo : 483000 : 357
misses per kilo : 484000 : 421
misses per kilo : 485000 : 421
misses per kilo : 486000 : 331
misses per kilo : 487000 : 410
misses per kilo : 488000 : 354
misses per kilo : 489000 : 306
misses per kilo : 490000 : 375
misses per kilo : 491000 : 371
misses per kilo : 492000 : 370
misses per kilo : 493000 : 322
misses per kilo : 494000 : 356
misses per kilo : 495000 : 365
misses per kilo : 496000 : 390
misses per kilo : 497000 : 335
misses per kilo : 498000 : 385
misses per kilo : 499000 : 361
misses per kilo : 500000 : 360
misses per kilo : 501000 : 411
misses per kilo : 502000 : 371
misses per kilo : 503000 : 372
misses per kilo : 504000 : 348
misses per kilo : 505000 : 377
misses per kilo : 506000 : 382
misses per kilo : 507000 : 371
misses per kilo : 508000 : 377
misses per kilo : 509000 : 373
misses per kilo : 510000 : 356
misses per kilo : 511000 : 348
misses per kilo : 512000 : 351
misses per kilo : 513000 : 360
misses per kilo : 514000 : 413
misses per kilo : 515000 : 323
misses per kilo : 516000 : 347
misses per kilo : 517000 : 321
misses per kilo : 518000 : 320
misses per kilo : 519000 : 326
misses per kilo : 520000 : 354
misses per kilo : 521000 : 335
misses per kilo : 522000 : 343
Heartbeat CPU 0 instructions: 10000000 cycles: 3716648 heartbeat IPC: 2.6906 cumulative IPC: 2.6906 (Simulation time: 0 hr 0 min 20 sec) 
misses per kilo : 523000 : 417
misses per kilo : 524000 : 326
misses per kilo : 525000 : 346
misses per kilo : 526000 : 347
misses per kilo : 527000 : 344
misses per kilo : 528000 : 406
misses per kilo : 529000 : 350
misses per kilo : 530000 : 363
misses per kilo : 531000 : 407
misses per kilo : 532000 : 339
misses per kilo : 533000 : 336
misses per kilo : 534000 : 335
misses per kilo : 535000 : 324
misses per kilo : 536000 : 341
misses per kilo : 537000 : 332
misses per kilo : 538000 : 344
misses per kilo : 539000 : 346
misses per kilo : 540000 : 407
misses per kilo : 541000 : 332
misses per kilo : 542000 : 304
misses per kilo : 543000 : 349
misses per kilo : 544000 : 351
misses per kilo : 545000 : 339
misses per kilo : 546000 : 330
misses per kilo : 547000 : 359
misses per kilo : 548000 : 380
misses per kilo : 549000 : 339
misses per kilo : 550000 : 360
misses per kilo : 551000 : 336
misses per kilo : 552000 : 355
misses per kilo : 553000 : 340
misses per kilo : 554000 : 348
misses per kilo : 555000 : 415
misses per kilo : 556000 : 397
misses per kilo : 557000 : 428
misses per kilo : 558000 : 413
misses per kilo : 559000 : 408
misses per kilo : 560000 : 402
misses per kilo : 561000 : 471
misses per kilo : 562000 : 429
misses per kilo : 563000 : 421
misses per kilo : 564000 : 387
misses per kilo : 565000 : 395
misses per kilo : 566000 : 448
misses per kilo : 567000 : 413
misses per kilo : 568000 : 417
misses per kilo : 569000 : 371
misses per kilo : 570000 : 411
misses per kilo : 571000 : 386
misses per kilo : 572000 : 384
misses per kilo : 573000 : 363
misses per kilo : 574000 : 412
misses per kilo : 575000 : 354
misses per kilo : 576000 : 383
misses per kilo : 577000 : 387
misses per kilo : 578000 : 371
misses per kilo : 579000 : 415
misses per kilo : 580000 : 383
misses per kilo : 581000 : 399
misses per kilo : 582000 : 393
misses per kilo : 583000 : 452
misses per kilo : 584000 : 384
misses per kilo : 585000 : 530
misses per kilo : 586000 : 495
misses per kilo : 587000 : 485
misses per kilo : 588000 : 467
misses per kilo : 589000 : 420
misses per kilo : 590000 : 426
misses per kilo : 591000 : 429
misses per kilo : 592000 : 426
misses per kilo : 593000 : 470
misses per kilo : 594000 : 541
misses per kilo : 595000 : 486
misses per kilo : 596000 : 453
misses per kilo : 597000 : 464
misses per kilo : 598000 : 470
misses per kilo : 599000 : 478
misses per kilo : 600000 : 488
misses per kilo : 601000 : 460
misses per kilo : 602000 : 409
misses per kilo : 603000 : 305
misses per kilo : 604000 : 278
misses per kilo : 605000 : 343
misses per kilo : 606000 : 337
misses per kilo : 607000 : 427
misses per kilo : 608000 : 355
misses per kilo : 609000 : 380
misses per kilo : 610000 : 335
misses per kilo : 611000 : 395
misses per kilo : 612000 : 456
misses per kilo : 613000 : 411
misses per kilo : 614000 : 471
misses per kilo : 615000 : 536
misses per kilo : 616000 : 396
misses per kilo : 617000 : 425
misses per kilo : 618000 : 368
misses per kilo : 619000 : 369
misses per kilo : 620000 : 346
misses per kilo : 621000 : 353
misses per kilo : 622000 : 328
misses per kilo : 623000 : 419
misses per kilo : 624000 : 327
misses per kilo : 625000 : 320
misses per kilo : 626000 : 343
misses per kilo : 627000 : 379
misses per kilo : 628000 : 563
misses per kilo : 629000 : 466
misses per kilo : 630000 : 349
misses per kilo : 631000 : 338
misses per kilo : 632000 : 339
misses per kilo : 633000 : 347
misses per kilo : 634000 : 378
misses per kilo : 635000 : 343
misses per kilo : 636000 : 352
misses per kilo : 637000 : 427
misses per kilo : 638000 : 420
misses per kilo : 639000 : 351
misses per kilo : 640000 : 370
misses per kilo : 641000 : 314
misses per kilo : 642000 : 311
misses per kilo : 643000 : 328
misses per kilo : 644000 : 476
misses per kilo : 645000 : 329
misses per kilo : 646000 : 467
misses per kilo : 647000 : 349
misses per kilo : 648000 : 353
misses per kilo : 649000 : 352
misses per kilo : 650000 : 338
misses per kilo : 651000 : 349
misses per kilo : 652000 : 346
misses per kilo : 653000 : 322
misses per kilo : 654000 : 300
misses per kilo : 655000 : 335
misses per kilo : 656000 : 281
misses per kilo : 657000 : 340
misses per kilo : 658000 : 349
misses per kilo : 659000 : 370
misses per kilo : 660000 : 304
misses per kilo : 661000 : 301
misses per kilo : 662000 : 402
misses per kilo : 663000 : 301
misses per kilo : 664000 : 330
misses per kilo : 665000 : 336
misses per kilo : 666000 : 355
misses per kilo : 667000 : 478
misses per kilo : 668000 : 379
misses per kilo : 669000 : 340
misses per kilo : 670000 : 362
misses per kilo : 671000 : 440
misses per kilo : 672000 : 429
misses per kilo : 673000 : 420
misses per kilo : 674000 : 476
misses per kilo : 675000 : 413
misses per kilo : 676000 : 413
misses per kilo : 677000 : 433
misses per kilo : 678000 : 423
misses per kilo : 679000 : 538
misses per kilo : 680000 : 431
misses per kilo : 681000 : 508
misses per kilo : 682000 : 402
misses per kilo : 683000 : 395
misses per kilo : 684000 : 535
misses per kilo : 685000 : 437
misses per kilo : 686000 : 447
misses per kilo : 687000 : 403
misses per kilo : 688000 : 460
misses per kilo : 689000 : 394
misses per kilo : 690000 : 426
misses per kilo : 691000 : 385
misses per kilo : 692000 : 418
misses per kilo : 693000 : 561
misses per kilo : 694000 : 431
misses per kilo : 695000 : 476
misses per kilo : 696000 : 425
misses per kilo : 697000 : 410
misses per kilo : 698000 : 416
misses per kilo : 699000 : 432
misses per kilo : 700000 : 434
misses per kilo : 701000 : 484
misses per kilo : 702000 : 482
misses per kilo : 703000 : 466
misses per kilo : 704000 : 495
misses per kilo : 705000 : 490
misses per kilo : 706000 : 513
misses per kilo : 707000 : 512
misses per kilo : 708000 : 473
misses per kilo : 709000 : 428
misses per kilo : 710000 : 534
misses per kilo : 711000 : 528
misses per kilo : 712000 : 474
misses per kilo : 713000 : 352
misses per kilo : 714000 : 313
misses per kilo : 715000 : 381
misses per kilo : 716000 : 311
misses per kilo : 717000 : 324
misses per kilo : 718000 : 329
misses per kilo : 719000 : 346
misses per kilo : 720000 : 326
misses per kilo : 721000 : 354
misses per kilo : 722000 : 580
misses per kilo : 723000 : 383
misses per kilo : 724000 : 378
misses per kilo : 725000 : 334
misses per kilo : 726000 : 375
misses per kilo : 727000 : 358
misses per kilo : 728000 : 337
misses per kilo : 729000 : 472
misses per kilo : 730000 : 371
misses per kilo : 731000 : 513
misses per kilo : 732000 : 359
misses per kilo : 733000 : 406
misses per kilo : 734000 : 363
misses per kilo : 735000 : 371
misses per kilo : 736000 : 374
misses per kilo : 737000 : 350
misses per kilo : 738000 : 393
misses per kilo : 739000 : 386
misses per kilo : 740000 : 441
misses per kilo : 741000 : 578
misses per kilo : 742000 : 574
misses per kilo : 743000 : 482
misses per kilo : 744000 : 490
misses per kilo : 745000 : 449
misses per kilo : 746000 : 426
misses per kilo : 747000 : 451
misses per kilo : 748000 : 489
misses per kilo : 749000 : 408
misses per kilo : 750000 : 518
misses per kilo : 751000 : 406
misses per kilo : 752000 : 406
misses per kilo : 753000 : 505
misses per kilo : 754000 : 399
misses per kilo : 755000 : 397
misses per kilo : 756000 : 417
misses per kilo : 757000 : 397
misses per kilo : 758000 : 428
misses per kilo : 759000 : 424
misses per kilo : 760000 : 409
misses per kilo : 761000 : 424
misses per kilo : 762000 : 426
misses per kilo : 763000 : 505
misses per kilo : 764000 : 451
misses per kilo : 765000 : 420
misses per kilo : 766000 : 400
misses per kilo : 767000 : 396
misses per kilo : 768000 : 415
misses per kilo : 769000 : 463
misses per kilo : 770000 : 443
misses per kilo : 771000 : 453
misses per kilo : 772000 : 424
misses per kilo : 773000 : 433
misses per kilo : 774000 : 420
misses per kilo : 775000 : 425
misses per kilo : 776000 : 419
misses per kilo : 777000 : 423
misses per kilo : 778000 : 421
misses per kilo : 779000 : 487
misses per kilo : 780000 : 467
misses per kilo : 781000 : 394
misses per kilo : 782000 : 342
misses per kilo : 783000 : 397
misses per kilo : 784000 : 310
misses per kilo : 785000 : 318
misses per kilo : 786000 : 286
misses per kilo : 787000 : 313
misses per kilo : 788000 : 375
misses per kilo : 789000 : 306
misses per kilo : 790000 : 324
misses per kilo : 791000 : 329
misses per kilo : 792000 : 404
misses per kilo : 793000 : 402
misses per kilo : 794000 : 372
misses per kilo : 795000 : 325
misses per kilo : 796000 : 339
misses per kilo : 797000 : 338
misses per kilo : 798000 : 374
misses per kilo : 799000 : 537
misses per kilo : 800000 : 378
misses per kilo : 801000 : 433
misses per kilo : 802000 : 393
misses per kilo : 803000 : 353
misses per kilo : 804000 : 329
misses per kilo : 805000 : 352
misses per kilo : 806000 : 342
misses per kilo : 807000 : 488
misses per kilo : 808000 : 368
misses per kilo : 809000 : 367
misses per kilo : 810000 : 332
misses per kilo : 811000 : 318
misses per kilo : 812000 : 336
misses per kilo : 813000 : 369
misses per kilo : 814000 : 325
misses per kilo : 815000 : 314
misses per kilo : 816000 : 352
misses per kilo : 817000 : 370
misses per kilo : 818000 : 336
misses per kilo : 819000 : 345
misses per kilo : 820000 : 381
misses per kilo : 821000 : 369
misses per kilo : 822000 : 398
misses per kilo : 823000 : 390
misses per kilo : 824000 : 335
misses per kilo : 825000 : 330
misses per kilo : 826000 : 351
misses per kilo : 827000 : 356
misses per kilo : 828000 : 387
misses per kilo : 829000 : 372
misses per kilo : 830000 : 386
misses per kilo : 831000 : 381
misses per kilo : 832000 : 513
misses per kilo : 833000 : 411
misses per kilo : 834000 : 368
misses per kilo : 835000 : 405
misses per kilo : 836000 : 315
misses per kilo : 837000 : 417
misses per kilo : 838000 : 355
misses per kilo : 839000 : 382
misses per kilo : 840000 : 390
misses per kilo : 841000 : 389
misses per kilo : 842000 : 375
misses per kilo : 843000 : 364
misses per kilo : 844000 : 485
misses per kilo : 845000 : 382
misses per kilo : 846000 : 384
misses per kilo : 847000 : 376
misses per kilo : 848000 : 342
misses per kilo : 849000 : 307
misses per kilo : 850000 : 360
misses per kilo : 851000 : 351
misses per kilo : 852000 : 396
misses per kilo : 853000 : 404
misses per kilo : 854000 : 436
misses per kilo : 855000 : 498
misses per kilo : 856000 : 382
misses per kilo : 857000 : 410
misses per kilo : 858000 : 373
misses per kilo : 859000 : 367
misses per kilo : 860000 : 359
misses per kilo : 861000 : 364
misses per kilo : 862000 : 366
misses per kilo : 863000 : 348
misses per kilo : 864000 : 340
misses per kilo : 865000 : 330
misses per kilo : 866000 : 319
misses per kilo : 867000 : 315
misses per kilo : 868000 : 358
misses per kilo : 869000 : 314
misses per kilo : 870000 : 427
misses per kilo : 871000 : 362
misses per kilo : 872000 : 355
misses per kilo : 873000 : 371
misses per kilo : 874000 : 401
misses per kilo : 875000 : 403
misses per kilo : 876000 : 386
misses per kilo : 877000 : 369
misses per kilo : 878000 : 514
misses per kilo : 879000 : 351
misses per kilo : 880000 : 343
misses per kilo : 881000 : 373
misses per kilo : 882000 : 385
misses per kilo : 883000 : 365
misses per kilo : 884000 : 389
misses per kilo : 885000 : 411
misses per kilo : 886000 : 398
misses per kilo : 887000 : 352
misses per kilo : 888000 : 389
misses per kilo : 889000 : 343
misses per kilo : 890000 : 324
misses per kilo : 891000 : 396
misses per kilo : 892000 : 378
misses per kilo : 893000 : 383
misses per kilo : 894000 : 367
misses per kilo : 895000 : 491
misses per kilo : 896000 : 383
misses per kilo : 897000 : 374
misses per kilo : 898000 : 379
misses per kilo : 899000 : 364
misses per kilo : 900000 : 435
misses per kilo : 901000 : 330
misses per kilo : 902000 : 357
misses per kilo : 903000 : 376
misses per kilo : 904000 : 359
misses per kilo : 905000 : 359
misses per kilo : 906000 : 340
misses per kilo : 907000 : 348
misses per kilo : 908000 : 415
misses per kilo : 909000 : 382
misses per kilo : 910000 : 367
misses per kilo : 911000 : 360
misses per kilo : 912000 : 381
misses per kilo : 913000 : 366
misses per kilo : 914000 : 367
misses per kilo : 915000 : 512
misses per kilo : 916000 : 344
misses per kilo : 917000 : 359
misses per kilo : 918000 : 367
misses per kilo : 919000 : 425
misses per kilo : 920000 : 337
misses per kilo : 921000 : 363
misses per kilo : 922000 : 372
misses per kilo : 923000 : 391
misses per kilo : 924000 : 363
misses per kilo : 925000 : 374
misses per kilo : 926000 : 496
misses per kilo : 927000 : 410
misses per kilo : 928000 : 474
misses per kilo : 929000 : 400
misses per kilo : 930000 : 356
misses per kilo : 931000 : 395
misses per kilo : 932000 : 372
misses per kilo : 933000 : 357
misses per kilo : 934000 : 375
misses per kilo : 935000 : 352
misses per kilo : 936000 : 369
misses per kilo : 937000 : 364
misses per kilo : 938000 : 386
misses per kilo : 939000 : 517
misses per kilo : 940000 : 365
misses per kilo : 941000 : 346
misses per kilo : 942000 : 378
misses per kilo : 943000 : 370
misses per kilo : 944000 : 350
misses per kilo : 945000 : 349
misses per kilo : 946000 : 331
misses per kilo : 947000 : 355
misses per kilo : 948000 : 382
misses per kilo : 949000 : 364
misses per kilo : 950000 : 339
misses per kilo : 951000 : 371
misses per kilo : 952000 : 363
misses per kilo : 953000 : 519
misses per kilo : 954000 : 497
misses per kilo : 955000 : 378
misses per kilo : 956000 : 358
misses per kilo : 957000 : 372
misses per kilo : 958000 : 346
misses per kilo : 959000 : 388
misses per kilo : 960000 : 360
misses per kilo : 961000 : 352
misses per kilo : 962000 : 382
misses per kilo : 963000 : 387
misses per kilo : 964000 : 448
misses per kilo : 965000 : 443
misses per kilo : 966000 : 374
misses per kilo : 967000 : 375
misses per kilo : 968000 : 369
misses per kilo : 969000 : 369
misses per kilo : 970000 : 373
misses per kilo : 971000 : 359
misses per kilo : 972000 : 379
misses per kilo : 973000 : 368
misses per kilo : 974000 : 370
misses per kilo : 975000 : 357
misses per kilo : 976000 : 347
misses per kilo : 977000 : 381
misses per kilo : 978000 : 381
misses per kilo : 979000 : 379
misses per kilo : 980000 : 345
misses per kilo : 981000 : 362
misses per kilo : 982000 : 346
misses per kilo : 983000 : 366
misses per kilo : 984000 : 365
misses per kilo : 985000 : 339
misses per kilo : 986000 : 337
misses per kilo : 987000 : 350
misses per kilo : 988000 : 345
misses per kilo : 989000 : 365
misses per kilo : 990000 : 354
misses per kilo : 991000 : 360
misses per kilo : 992000 : 353
misses per kilo : 993000 : 330
misses per kilo : 994000 : 336
misses per kilo : 995000 : 328
misses per kilo : 996000 : 294
misses per kilo : 997000 : 343
misses per kilo : 998000 : 327
misses per kilo : 999000 : 316
misses per kilo : 1000000 : 373
misses per kilo : 1001000 : 347
misses per kilo : 1002000 : 350
misses per kilo : 1003000 : 364
misses per kilo : 1004000 : 422
misses per kilo : 1005000 : 371
misses per kilo : 1006000 : 484
misses per kilo : 1007000 : 509
misses per kilo : 1008000 : 355
misses per kilo : 1009000 : 364
misses per kilo : 1010000 : 392
misses per kilo : 1011000 : 321
misses per kilo : 1012000 : 315
misses per kilo : 1013000 : 380
misses per kilo : 1014000 : 383
misses per kilo : 1015000 : 325
misses per kilo : 1016000 : 361
misses per kilo : 1017000 : 335
misses per kilo : 1018000 : 369
misses per kilo : 1019000 : 519
Heartbeat CPU 0 instructions: 20000003 cycles: 7683820 heartbeat IPC: 2.52069 cumulative IPC: 2.60287 (Simulation time: 0 hr 0 min 42 sec) 
misses per kilo : 1020000 : 608
misses per kilo : 1021000 : 361
misses per kilo : 1022000 : 362
misses per kilo : 1023000 : 377
misses per kilo : 1024000 : 361
misses per kilo : 1025000 : 380
misses per kilo : 1026000 : 407
misses per kilo : 1027000 : 383
misses per kilo : 1028000 : 362
misses per kilo : 1029000 : 399
misses per kilo : 1030000 : 410
misses per kilo : 1031000 : 390
misses per kilo : 1032000 : 403
misses per kilo : 1033000 : 360
misses per kilo : 1034000 : 390
misses per kilo : 1035000 : 396
misses per kilo : 1036000 : 373
misses per kilo : 1037000 : 396
misses per kilo : 1038000 : 405
misses per kilo : 1039000 : 405
misses per kilo : 1040000 : 375
misses per kilo : 1041000 : 345
misses per kilo : 1042000 : 333
misses per kilo : 1043000 : 410
misses per kilo : 1044000 : 371
misses per kilo : 1045000 : 339
misses per kilo : 1046000 : 358
misses per kilo : 1047000 : 421
misses per kilo : 1048000 : 370
misses per kilo : 1049000 : 315
misses per kilo : 1050000 : 357
misses per kilo : 1051000 : 321
misses per kilo : 1052000 : 352
misses per kilo : 1053000 : 343
misses per kilo : 1054000 : 378
misses per kilo : 1055000 : 348
misses per kilo : 1056000 : 358
misses per kilo : 1057000 : 345
misses per kilo : 1058000 : 362
misses per kilo : 1059000 : 374
misses per kilo : 1060000 : 400
misses per kilo : 1061000 : 408
misses per kilo : 1062000 : 454
misses per kilo : 1063000 : 331
misses per kilo : 1064000 : 332
misses per kilo : 1065000 : 345
misses per kilo : 1066000 : 323
misses per kilo : 1067000 : 316
misses per kilo : 1068000 : 376
misses per kilo : 1069000 : 523
misses per kilo : 1070000 : 485
misses per kilo : 1071000 : 371
misses per kilo : 1072000 : 361
misses per kilo : 1073000 : 462
misses per kilo : 1074000 : 368
misses per kilo : 1075000 : 366
misses per kilo : 1076000 : 356
misses per kilo : 1077000 : 355
misses per kilo : 1078000 : 367
misses per kilo : 1079000 : 358
misses per kilo : 1080000 : 363
misses per kilo : 1081000 : 396
misses per kilo : 1082000 : 364
misses per kilo : 1083000 : 374
misses per kilo : 1084000 : 374
misses per kilo : 1085000 : 346
misses per kilo : 1086000 : 423
misses per kilo : 1087000 : 341
misses per kilo : 1088000 : 352
misses per kilo : 1089000 : 433
misses per kilo : 1090000 : 440
misses per kilo : 1091000 : 385
misses per kilo : 1092000 : 392
misses per kilo : 1093000 : 380
misses per kilo : 1094000 : 397
misses per kilo : 1095000 : 384
misses per kilo : 1096000 : 372
misses per kilo : 1097000 : 385
misses per kilo : 1098000 : 384
misses per kilo : 1099000 : 390
misses per kilo : 1100000 : 369
misses per kilo : 1101000 : 544
misses per kilo : 1102000 : 362
misses per kilo : 1103000 : 364
misses per kilo : 1104000 : 382
misses per kilo : 1105000 : 372
misses per kilo : 1106000 : 395
misses per kilo : 1107000 : 404
misses per kilo : 1108000 : 399
misses per kilo : 1109000 : 378
misses per kilo : 1110000 : 352
misses per kilo : 1111000 : 390
misses per kilo : 1112000 : 486
misses per kilo : 1113000 : 667
misses per kilo : 1114000 : 349
misses per kilo : 1115000 : 361
misses per kilo : 1116000 : 358
misses per kilo : 1117000 : 352
misses per kilo : 1118000 : 332
misses per kilo : 1119000 : 352
misses per kilo : 1120000 : 356
misses per kilo : 1121000 : 332
misses per kilo : 1122000 : 340
misses per kilo : 1123000 : 368
misses per kilo : 1124000 : 383
misses per kilo : 1125000 : 370
misses per kilo : 1126000 : 342
misses per kilo : 1127000 : 339
misses per kilo : 1128000 : 347
misses per kilo : 1129000 : 377
misses per kilo : 1130000 : 335
misses per kilo : 1131000 : 415
misses per kilo : 1132000 : 340
misses per kilo : 1133000 : 377
misses per kilo : 1134000 : 340
misses per kilo : 1135000 : 353
misses per kilo : 1136000 : 345
misses per kilo : 1137000 : 409
misses per kilo : 1138000 : 354
misses per kilo : 1139000 : 651
misses per kilo : 1140000 : 362
misses per kilo : 1141000 : 357
misses per kilo : 1142000 : 349
misses per kilo : 1143000 : 340
misses per kilo : 1144000 : 394
misses per kilo : 1145000 : 382
misses per kilo : 1146000 : 364
misses per kilo : 1147000 : 379
misses per kilo : 1148000 : 402
misses per kilo : 1149000 : 406
misses per kilo : 1150000 : 389
misses per kilo : 1151000 : 347
misses per kilo : 1152000 : 383
misses per kilo : 1153000 : 367
misses per kilo : 1154000 : 363
misses per kilo : 1155000 : 340
misses per kilo : 1156000 : 376
misses per kilo : 1157000 : 355
misses per kilo : 1158000 : 354
misses per kilo : 1159000 : 382
misses per kilo : 1160000 : 350
misses per kilo : 1161000 : 504
misses per kilo : 1162000 : 333
misses per kilo : 1163000 : 492
misses per kilo : 1164000 : 374
misses per kilo : 1165000 : 339
misses per kilo : 1166000 : 366
misses per kilo : 1167000 : 385
misses per kilo : 1168000 : 374
misses per kilo : 1169000 : 370
misses per kilo : 1170000 : 398
misses per kilo : 1171000 : 397
misses per kilo : 1172000 : 378
misses per kilo : 1173000 : 358
misses per kilo : 1174000 : 393
misses per kilo : 1175000 : 374
misses per kilo : 1176000 : 369
misses per kilo : 1177000 : 378
misses per kilo : 1178000 : 396
misses per kilo : 1179000 : 454
misses per kilo : 1180000 : 357
misses per kilo : 1181000 : 373
misses per kilo : 1182000 : 391
misses per kilo : 1183000 : 378
misses per kilo : 1184000 : 389
misses per kilo : 1185000 : 472
misses per kilo : 1186000 : 383
misses per kilo : 1187000 : 386
misses per kilo : 1188000 : 524
misses per kilo : 1189000 : 368
misses per kilo : 1190000 : 339
misses per kilo : 1191000 : 600
misses per kilo : 1192000 : 424
misses per kilo : 1193000 : 377
misses per kilo : 1194000 : 386
misses per kilo : 1195000 : 366
misses per kilo : 1196000 : 343
misses per kilo : 1197000 : 352
misses per kilo : 1198000 : 336
misses per kilo : 1199000 : 390
misses per kilo : 1200000 : 385
misses per kilo : 1201000 : 373
misses per kilo : 1202000 : 443
misses per kilo : 1203000 : 351
misses per kilo : 1204000 : 359
misses per kilo : 1205000 : 406
misses per kilo : 1206000 : 378
misses per kilo : 1207000 : 367
misses per kilo : 1208000 : 374
misses per kilo : 1209000 : 383
misses per kilo : 1210000 : 360
misses per kilo : 1211000 : 384
misses per kilo : 1212000 : 344
misses per kilo : 1213000 : 348
misses per kilo : 1214000 : 385
misses per kilo : 1215000 : 381
misses per kilo : 1216000 : 390
misses per kilo : 1217000 : 421
misses per kilo : 1218000 : 649
misses per kilo : 1219000 : 385
misses per kilo : 1220000 : 371
misses per kilo : 1221000 : 373
misses per kilo : 1222000 : 427
misses per kilo : 1223000 : 348
misses per kilo : 1224000 : 390
misses per kilo : 1225000 : 396
misses per kilo : 1226000 : 393
misses per kilo : 1227000 : 386
misses per kilo : 1228000 : 367
misses per kilo : 1229000 : 426
misses per kilo : 1230000 : 384
misses per kilo : 1231000 : 383
misses per kilo : 1232000 : 391
misses per kilo : 1233000 : 383
misses per kilo : 1234000 : 387
misses per kilo : 1235000 : 356
misses per kilo : 1236000 : 370
misses per kilo : 1237000 : 453
misses per kilo : 1238000 : 383
misses per kilo : 1239000 : 364
misses per kilo : 1240000 : 351
misses per kilo : 1241000 : 440
misses per kilo : 1242000 : 379
misses per kilo : 1243000 : 341
misses per kilo : 1244000 : 382
misses per kilo : 1245000 : 388
misses per kilo : 1246000 : 380
misses per kilo : 1247000 : 392
misses per kilo : 1248000 : 351
misses per kilo : 1249000 : 403
misses per kilo : 1250000 : 388
misses per kilo : 1251000 : 384
misses per kilo : 1252000 : 416
misses per kilo : 1253000 : 445
misses per kilo : 1254000 : 442
misses per kilo : 1255000 : 440
misses per kilo : 1256000 : 464
misses per kilo : 1257000 : 418
misses per kilo : 1258000 : 409
misses per kilo : 1259000 : 413
misses per kilo : 1260000 : 399
misses per kilo : 1261000 : 389
misses per kilo : 1262000 : 384
misses per kilo : 1263000 : 398
misses per kilo : 1264000 : 375
misses per kilo : 1265000 : 380
misses per kilo : 1266000 : 433
misses per kilo : 1267000 : 412
misses per kilo : 1268000 : 382
misses per kilo : 1269000 : 424
misses per kilo : 1270000 : 432
misses per kilo : 1271000 : 400
misses per kilo : 1272000 : 516
misses per kilo : 1273000 : 412
misses per kilo : 1274000 : 427
misses per kilo : 1275000 : 444
misses per kilo : 1276000 : 432
misses per kilo : 1277000 : 448
misses per kilo : 1278000 : 554
misses per kilo : 1279000 : 483
misses per kilo : 1280000 : 476
misses per kilo : 1281000 : 482
misses per kilo : 1282000 : 526
misses per kilo : 1283000 : 536
misses per kilo : 1284000 : 498
misses per kilo : 1285000 : 480
misses per kilo : 1286000 : 504
misses per kilo : 1287000 : 730
misses per kilo : 1288000 : 546
misses per kilo : 1289000 : 456
misses per kilo : 1290000 : 422
misses per kilo : 1291000 : 421
misses per kilo : 1292000 : 402
misses per kilo : 1293000 : 424
misses per kilo : 1294000 : 390
misses per kilo : 1295000 : 350
misses per kilo : 1296000 : 339
misses per kilo : 1297000 : 333
misses per kilo : 1298000 : 330
misses per kilo : 1299000 : 343
misses per kilo : 1300000 : 317
misses per kilo : 1301000 : 545
misses per kilo : 1302000 : 670
misses per kilo : 1303000 : 409
misses per kilo : 1304000 : 313
misses per kilo : 1305000 : 368
misses per kilo : 1306000 : 339
misses per kilo : 1307000 : 376
misses per kilo : 1308000 : 414
misses per kilo : 1309000 : 430
misses per kilo : 1310000 : 338
misses per kilo : 1311000 : 340
misses per kilo : 1312000 : 343
misses per kilo : 1313000 : 455
misses per kilo : 1314000 : 367
misses per kilo : 1315000 : 414
misses per kilo : 1316000 : 401
misses per kilo : 1317000 : 367
misses per kilo : 1318000 : 342
misses per kilo : 1319000 : 449
misses per kilo : 1320000 : 394
misses per kilo : 1321000 : 375
misses per kilo : 1322000 : 659
misses per kilo : 1323000 : 379
misses per kilo : 1324000 : 378
misses per kilo : 1325000 : 360
misses per kilo : 1326000 : 427
misses per kilo : 1327000 : 435
misses per kilo : 1328000 : 373
misses per kilo : 1329000 : 403
misses per kilo : 1330000 : 414
misses per kilo : 1331000 : 445
misses per kilo : 1332000 : 416
misses per kilo : 1333000 : 440
misses per kilo : 1334000 : 406
misses per kilo : 1335000 : 427
misses per kilo : 1336000 : 360
misses per kilo : 1337000 : 339
misses per kilo : 1338000 : 358
misses per kilo : 1339000 : 351
misses per kilo : 1340000 : 340
misses per kilo : 1341000 : 381
misses per kilo : 1342000 : 419
misses per kilo : 1343000 : 329
misses per kilo : 1344000 : 338
misses per kilo : 1345000 : 328
misses per kilo : 1346000 : 392
misses per kilo : 1347000 : 360
misses per kilo : 1348000 : 362
misses per kilo : 1349000 : 351
misses per kilo : 1350000 : 374
misses per kilo : 1351000 : 375
misses per kilo : 1352000 : 545
misses per kilo : 1353000 : 349
misses per kilo : 1354000 : 341
misses per kilo : 1355000 : 346
misses per kilo : 1356000 : 500
misses per kilo : 1357000 : 525
misses per kilo : 1358000 : 363
misses per kilo : 1359000 : 458
misses per kilo : 1360000 : 345
misses per kilo : 1361000 : 382
misses per kilo : 1362000 : 477
misses per kilo : 1363000 : 420
misses per kilo : 1364000 : 376
misses per kilo : 1365000 : 376
misses per kilo : 1366000 : 375
misses per kilo : 1367000 : 392
misses per kilo : 1368000 : 396
misses per kilo : 1369000 : 339
misses per kilo : 1370000 : 362
misses per kilo : 1371000 : 376
misses per kilo : 1372000 : 355
misses per kilo : 1373000 : 373
misses per kilo : 1374000 : 385
misses per kilo : 1375000 : 392
misses per kilo : 1376000 : 368
misses per kilo : 1377000 : 360
misses per kilo : 1378000 : 363
misses per kilo : 1379000 : 411
misses per kilo : 1380000 : 443
misses per kilo : 1381000 : 461
misses per kilo : 1382000 : 444
misses per kilo : 1383000 : 435
misses per kilo : 1384000 : 448
misses per kilo : 1385000 : 436
misses per kilo : 1386000 : 422
misses per kilo : 1387000 : 411
misses per kilo : 1388000 : 411
misses per kilo : 1389000 : 413
misses per kilo : 1390000 : 397
misses per kilo : 1391000 : 408
misses per kilo : 1392000 : 424
misses per kilo : 1393000 : 406
misses per kilo : 1394000 : 424
misses per kilo : 1395000 : 383
misses per kilo : 1396000 : 399
misses per kilo : 1397000 : 440
misses per kilo : 1398000 : 655
misses per kilo : 1399000 : 414
misses per kilo : 1400000 : 444
misses per kilo : 1401000 : 451
misses per kilo : 1402000 : 438
misses per kilo : 1403000 : 440
misses per kilo : 1404000 : 449
misses per kilo : 1405000 : 476
misses per kilo : 1406000 : 477
misses per kilo : 1407000 : 520
misses per kilo : 1408000 : 490
misses per kilo : 1409000 : 499
misses per kilo : 1410000 : 500
misses per kilo : 1411000 : 536
misses per kilo : 1412000 : 473
misses per kilo : 1413000 : 487
misses per kilo : 1414000 : 511
misses per kilo : 1415000 : 281
misses per kilo : 1416000 : 376
misses per kilo : 1417000 : 350
misses per kilo : 1418000 : 339
misses per kilo : 1419000 : 349
misses per kilo : 1420000 : 348
misses per kilo : 1421000 : 458
misses per kilo : 1422000 : 359
misses per kilo : 1423000 : 443
misses per kilo : 1424000 : 427
misses per kilo : 1425000 : 437
misses per kilo : 1426000 : 429
misses per kilo : 1427000 : 397
misses per kilo : 1428000 : 372
misses per kilo : 1429000 : 357
misses per kilo : 1430000 : 383
misses per kilo : 1431000 : 348
misses per kilo : 1432000 : 662
misses per kilo : 1433000 : 350
misses per kilo : 1434000 : 399
misses per kilo : 1435000 : 341
misses per kilo : 1436000 : 372
misses per kilo : 1437000 : 593
misses per kilo : 1438000 : 340
misses per kilo : 1439000 : 321
misses per kilo : 1440000 : 335
misses per kilo : 1441000 : 331
misses per kilo : 1442000 : 439
misses per kilo : 1443000 : 388
misses per kilo : 1444000 : 382
misses per kilo : 1445000 : 352
misses per kilo : 1446000 : 361
misses per kilo : 1447000 : 371
misses per kilo : 1448000 : 550
misses per kilo : 1449000 : 366
misses per kilo : 1450000 : 361
misses per kilo : 1451000 : 347
misses per kilo : 1452000 : 408
misses per kilo : 1453000 : 374
misses per kilo : 1454000 : 400
misses per kilo : 1455000 : 401
misses per kilo : 1456000 : 412
misses per kilo : 1457000 : 572
misses per kilo : 1458000 : 419
misses per kilo : 1459000 : 398
misses per kilo : 1460000 : 420
misses per kilo : 1461000 : 400
misses per kilo : 1462000 : 382
misses per kilo : 1463000 : 370
misses per kilo : 1464000 : 434
misses per kilo : 1465000 : 416
misses per kilo : 1466000 : 352
misses per kilo : 1467000 : 325
misses per kilo : 1468000 : 501
misses per kilo : 1469000 : 487
misses per kilo : 1470000 : 358
misses per kilo : 1471000 : 483
misses per kilo : 1472000 : 365
misses per kilo : 1473000 : 368
misses per kilo : 1474000 : 359
misses per kilo : 1475000 : 421
misses per kilo : 1476000 : 393
misses per kilo : 1477000 : 395
misses per kilo : 1478000 : 382
misses per kilo : 1479000 : 358
misses per kilo : 1480000 : 365
misses per kilo : 1481000 : 379
misses per kilo : 1482000 : 348
misses per kilo : 1483000 : 342
misses per kilo : 1484000 : 358
misses per kilo : 1485000 : 400
misses per kilo : 1486000 : 389
misses per kilo : 1487000 : 337
misses per kilo : 1488000 : 352
misses per kilo : 1489000 : 350
misses per kilo : 1490000 : 359
misses per kilo : 1491000 : 368
misses per kilo : 1492000 : 409
misses per kilo : 1493000 : 394
misses per kilo : 1494000 : 380
misses per kilo : 1495000 : 413
misses per kilo : 1496000 : 372
misses per kilo : 1497000 : 379
misses per kilo : 1498000 : 393
misses per kilo : 1499000 : 377
misses per kilo : 1500000 : 374
misses per kilo : 1501000 : 348
misses per kilo : 1502000 : 343
misses per kilo : 1503000 : 341
misses per kilo : 1504000 : 332
misses per kilo : 1505000 : 346
misses per kilo : 1506000 : 355
misses per kilo : 1507000 : 351
misses per kilo : 1508000 : 341
misses per kilo : 1509000 : 357
misses per kilo : 1510000 : 345
misses per kilo : 1511000 : 382
Heartbeat CPU 0 instructions: 30000003 cycles: 11794109 heartbeat IPC: 2.43292 cumulative IPC: 2.54364 (Simulation time: 0 hr 1 min 4 sec) 

Warmup complete CPU 0 instructions: 30000003 cycles: 11794109 (Simulation time: 0 hr 1 min 4 sec) 

misses per kilo : 1512000 : 351
misses per kilo : 1513000 : 374
misses per kilo : 1514000 : 375
misses per kilo : 1515000 : 366
misses per kilo : 1516000 : 361
misses per kilo : 1517000 : 384
misses per kilo : 1518000 : 382
misses per kilo : 1519000 : 388
misses per kilo : 1520000 : 353
misses per kilo : 1521000 : 354
misses per kilo : 1522000 : 342
misses per kilo : 1523000 : 356
misses per kilo : 1524000 : 388
misses per kilo : 1525000 : 361
misses per kilo : 1526000 : 375
misses per kilo : 1527000 : 379
misses per kilo : 1528000 : 395
misses per kilo : 1529000 : 436
misses per kilo : 1530000 : 351
misses per kilo : 1531000 : 357
misses per kilo : 1532000 : 357
misses per kilo : 1533000 : 373
misses per kilo : 1534000 : 347
misses per kilo : 1535000 : 366
misses per kilo : 1536000 : 397
misses per kilo : 1537000 : 428
misses per kilo : 1538000 : 430
misses per kilo : 1539000 : 431
misses per kilo : 1540000 : 424
misses per kilo : 1541000 : 439
misses per kilo : 1542000 : 419
misses per kilo : 1543000 : 403
misses per kilo : 1544000 : 397
misses per kilo : 1545000 : 374
misses per kilo : 1546000 : 392
misses per kilo : 1547000 : 396
misses per kilo : 1548000 : 390
misses per kilo : 1549000 : 392
misses per kilo : 1550000 : 421
misses per kilo : 1551000 : 399
misses per kilo : 1552000 : 405
misses per kilo : 1553000 : 402
misses per kilo : 1554000 : 448
misses per kilo : 1555000 : 681
misses per kilo : 1556000 : 414
misses per kilo : 1557000 : 425
misses per kilo : 1558000 : 461
misses per kilo : 1559000 : 505
misses per kilo : 1560000 : 465
misses per kilo : 1561000 : 437
misses per kilo : 1562000 : 551
misses per kilo : 1563000 : 435
misses per kilo : 1564000 : 452
misses per kilo : 1565000 : 476
misses per kilo : 1566000 : 461
misses per kilo : 1567000 : 680
misses per kilo : 1568000 : 550
misses per kilo : 1569000 : 495
misses per kilo : 1570000 : 536
misses per kilo : 1571000 : 535
misses per kilo : 1572000 : 533
misses per kilo : 1573000 : 323
misses per kilo : 1574000 : 339
misses per kilo : 1575000 : 319
misses per kilo : 1576000 : 395
misses per kilo : 1577000 : 331
misses per kilo : 1578000 : 312
misses per kilo : 1579000 : 337
misses per kilo : 1580000 : 422
misses per kilo : 1581000 : 393
misses per kilo : 1582000 : 370
misses per kilo : 1583000 : 379
misses per kilo : 1584000 : 390
misses per kilo : 1585000 : 413
misses per kilo : 1586000 : 409
misses per kilo : 1587000 : 394
misses per kilo : 1588000 : 387
misses per kilo : 1589000 : 527
misses per kilo : 1590000 : 367
misses per kilo : 1591000 : 384
misses per kilo : 1592000 : 395
misses per kilo : 1593000 : 394
misses per kilo : 1594000 : 382
misses per kilo : 1595000 : 375
misses per kilo : 1596000 : 389
misses per kilo : 1597000 : 388
misses per kilo : 1598000 : 434
misses per kilo : 1599000 : 417
misses per kilo : 1600000 : 351
misses per kilo : 1601000 : 339
misses per kilo : 1602000 : 405
misses per kilo : 1603000 : 437
misses per kilo : 1604000 : 431
misses per kilo : 1605000 : 398
misses per kilo : 1606000 : 396
misses per kilo : 1607000 : 399
misses per kilo : 1608000 : 509
misses per kilo : 1609000 : 562
misses per kilo : 1610000 : 364
misses per kilo : 1611000 : 340
misses per kilo : 1612000 : 330
misses per kilo : 1613000 : 328
misses per kilo : 1614000 : 337
misses per kilo : 1615000 : 344
misses per kilo : 1616000 : 696
misses per kilo : 1617000 : 591
misses per kilo : 1618000 : 390
misses per kilo : 1619000 : 376
misses per kilo : 1620000 : 365
misses per kilo : 1621000 : 389
misses per kilo : 1622000 : 388
misses per kilo : 1623000 : 403
misses per kilo : 1624000 : 396
misses per kilo : 1625000 : 391
misses per kilo : 1626000 : 349
misses per kilo : 1627000 : 393
misses per kilo : 1628000 : 430
misses per kilo : 1629000 : 393
misses per kilo : 1630000 : 400
misses per kilo : 1631000 : 393
misses per kilo : 1632000 : 405
misses per kilo : 1633000 : 395
misses per kilo : 1634000 : 408
misses per kilo : 1635000 : 359
misses per kilo : 1636000 : 370
misses per kilo : 1637000 : 346
misses per kilo : 1638000 : 364
misses per kilo : 1639000 : 544
misses per kilo : 1640000 : 409
misses per kilo : 1641000 : 332
misses per kilo : 1642000 : 345
misses per kilo : 1643000 : 371
misses per kilo : 1644000 : 375
misses per kilo : 1645000 : 383
misses per kilo : 1646000 : 414
misses per kilo : 1647000 : 678
misses per kilo : 1648000 : 382
misses per kilo : 1649000 : 364
misses per kilo : 1650000 : 382
misses per kilo : 1651000 : 398
misses per kilo : 1652000 : 385
misses per kilo : 1653000 : 361
misses per kilo : 1654000 : 371
misses per kilo : 1655000 : 403
misses per kilo : 1656000 : 367
misses per kilo : 1657000 : 389
misses per kilo : 1658000 : 364
misses per kilo : 1659000 : 378
misses per kilo : 1660000 : 408
misses per kilo : 1661000 : 395
misses per kilo : 1662000 : 388
misses per kilo : 1663000 : 405
misses per kilo : 1664000 : 459
misses per kilo : 1665000 : 456
misses per kilo : 1666000 : 363
misses per kilo : 1667000 : 335
misses per kilo : 1668000 : 371
misses per kilo : 1669000 : 357
misses per kilo : 1670000 : 337
misses per kilo : 1671000 : 363
misses per kilo : 1672000 : 462
misses per kilo : 1673000 : 347
misses per kilo : 1674000 : 350
misses per kilo : 1675000 : 388
misses per kilo : 1676000 : 348
misses per kilo : 1677000 : 331
misses per kilo : 1678000 : 366
misses per kilo : 1679000 : 393
misses per kilo : 1680000 : 445
misses per kilo : 1681000 : 370
misses per kilo : 1682000 : 411
misses per kilo : 1683000 : 387
misses per kilo : 1684000 : 384
misses per kilo : 1685000 : 341
misses per kilo : 1686000 : 407
misses per kilo : 1687000 : 391
misses per kilo : 1688000 : 374
misses per kilo : 1689000 : 360
misses per kilo : 1690000 : 374
misses per kilo : 1691000 : 371
misses per kilo : 1692000 : 373
misses per kilo : 1693000 : 364
misses per kilo : 1694000 : 361
misses per kilo : 1695000 : 366
misses per kilo : 1696000 : 394
misses per kilo : 1697000 : 379
misses per kilo : 1698000 : 387
misses per kilo : 1699000 : 386
misses per kilo : 1700000 : 375
misses per kilo : 1701000 : 382
misses per kilo : 1702000 : 353
misses per kilo : 1703000 : 330
misses per kilo : 1704000 : 363
misses per kilo : 1705000 : 388
misses per kilo : 1706000 : 384
misses per kilo : 1707000 : 367
misses per kilo : 1708000 : 431
misses per kilo : 1709000 : 337
misses per kilo : 1710000 : 345
misses per kilo : 1711000 : 357
misses per kilo : 1712000 : 345
misses per kilo : 1713000 : 370
misses per kilo : 1714000 : 348
misses per kilo : 1715000 : 347
misses per kilo : 1716000 : 369
misses per kilo : 1717000 : 385
misses per kilo : 1718000 : 370
misses per kilo : 1719000 : 368
misses per kilo : 1720000 : 350
misses per kilo : 1721000 : 394
misses per kilo : 1722000 : 374
misses per kilo : 1723000 : 352
misses per kilo : 1724000 : 417
misses per kilo : 1725000 : 366
misses per kilo : 1726000 : 385
misses per kilo : 1727000 : 526
misses per kilo : 1728000 : 625
misses per kilo : 1729000 : 360
misses per kilo : 1730000 : 640
misses per kilo : 1731000 : 397
misses per kilo : 1732000 : 477
misses per kilo : 1733000 : 342
misses per kilo : 1734000 : 362
misses per kilo : 1735000 : 353
misses per kilo : 1736000 : 353
misses per kilo : 1737000 : 357
misses per kilo : 1738000 : 405
misses per kilo : 1739000 : 398
misses per kilo : 1740000 : 398
misses per kilo : 1741000 : 372
misses per kilo : 1742000 : 388
misses per kilo : 1743000 : 380
misses per kilo : 1744000 : 376
misses per kilo : 1745000 : 380
misses per kilo : 1746000 : 363
misses per kilo : 1747000 : 387
misses per kilo : 1748000 : 366
misses per kilo : 1749000 : 505
misses per kilo : 1750000 : 525
misses per kilo : 1751000 : 366
misses per kilo : 1752000 : 329
misses per kilo : 1753000 : 358
misses per kilo : 1754000 : 323
misses per kilo : 1755000 : 392
misses per kilo : 1756000 : 362
misses per kilo : 1757000 : 373
misses per kilo : 1758000 : 392
misses per kilo : 1759000 : 359
misses per kilo : 1760000 : 367
misses per kilo : 1761000 : 383
misses per kilo : 1762000 : 404
misses per kilo : 1763000 : 387
misses per kilo : 1764000 : 382
misses per kilo : 1765000 : 363
misses per kilo : 1766000 : 373
misses per kilo : 1767000 : 424
misses per kilo : 1768000 : 372
misses per kilo : 1769000 : 374
misses per kilo : 1770000 : 361
misses per kilo : 1771000 : 364
misses per kilo : 1772000 : 398
misses per kilo : 1773000 : 385
misses per kilo : 1774000 : 384
misses per kilo : 1775000 : 372
misses per kilo : 1776000 : 394
misses per kilo : 1777000 : 427
misses per kilo : 1778000 : 390
misses per kilo : 1779000 : 370
misses per kilo : 1780000 : 385
misses per kilo : 1781000 : 391
misses per kilo : 1782000 : 347
misses per kilo : 1783000 : 377
misses per kilo : 1784000 : 388
misses per kilo : 1785000 : 376
misses per kilo : 1786000 : 381
misses per kilo : 1787000 : 379
misses per kilo : 1788000 : 381
misses per kilo : 1789000 : 362
misses per kilo : 1790000 : 373
misses per kilo : 1791000 : 403
misses per kilo : 1792000 : 435
misses per kilo : 1793000 : 386
misses per kilo : 1794000 : 438
misses per kilo : 1795000 : 392
misses per kilo : 1796000 : 385
misses per kilo : 1797000 : 387
misses per kilo : 1798000 : 395
misses per kilo : 1799000 : 455
misses per kilo : 1800000 : 408
misses per kilo : 1801000 : 381
misses per kilo : 1802000 : 369
misses per kilo : 1803000 : 392
misses per kilo : 1804000 : 382
misses per kilo : 1805000 : 645
misses per kilo : 1806000 : 379
misses per kilo : 1807000 : 378
misses per kilo : 1808000 : 354
misses per kilo : 1809000 : 378
misses per kilo : 1810000 : 365
misses per kilo : 1811000 : 364
misses per kilo : 1812000 : 349
misses per kilo : 1813000 : 381
misses per kilo : 1814000 : 370
misses per kilo : 1815000 : 380
misses per kilo : 1816000 : 394
misses per kilo : 1817000 : 374
misses per kilo : 1818000 : 373
misses per kilo : 1819000 : 392
misses per kilo : 1820000 : 353
misses per kilo : 1821000 : 443
misses per kilo : 1822000 : 380
misses per kilo : 1823000 : 350
misses per kilo : 1824000 : 383
misses per kilo : 1825000 : 364
misses per kilo : 1826000 : 369
misses per kilo : 1827000 : 338
misses per kilo : 1828000 : 339
misses per kilo : 1829000 : 361
misses per kilo : 1830000 : 413
misses per kilo : 1831000 : 409
misses per kilo : 1832000 : 377
misses per kilo : 1833000 : 404
misses per kilo : 1834000 : 403
misses per kilo : 1835000 : 395
misses per kilo : 1836000 : 387
misses per kilo : 1837000 : 369
misses per kilo : 1838000 : 348
misses per kilo : 1839000 : 367
misses per kilo : 1840000 : 385
misses per kilo : 1841000 : 343
misses per kilo : 1842000 : 376
misses per kilo : 1843000 : 386
misses per kilo : 1844000 : 346
misses per kilo : 1845000 : 382
misses per kilo : 1846000 : 372
misses per kilo : 1847000 : 507
misses per kilo : 1848000 : 399
misses per kilo : 1849000 : 413
misses per kilo : 1850000 : 406
misses per kilo : 1851000 : 411
misses per kilo : 1852000 : 390
misses per kilo : 1853000 : 561
misses per kilo : 1854000 : 426
misses per kilo : 1855000 : 454
misses per kilo : 1856000 : 413
misses per kilo : 1857000 : 425
misses per kilo : 1858000 : 437
misses per kilo : 1859000 : 425
misses per kilo : 1860000 : 420
misses per kilo : 1861000 : 439
misses per kilo : 1862000 : 416
misses per kilo : 1863000 : 474
misses per kilo : 1864000 : 471
misses per kilo : 1865000 : 463
misses per kilo : 1866000 : 452
misses per kilo : 1867000 : 432
misses per kilo : 1868000 : 440
misses per kilo : 1869000 : 466
misses per kilo : 1870000 : 457
misses per kilo : 1871000 : 411
misses per kilo : 1872000 : 463
misses per kilo : 1873000 : 480
misses per kilo : 1874000 : 587
misses per kilo : 1875000 : 489
misses per kilo : 1876000 : 483
misses per kilo : 1877000 : 504
misses per kilo : 1878000 : 475
misses per kilo : 1879000 : 504
misses per kilo : 1880000 : 376
misses per kilo : 1881000 : 329
misses per kilo : 1882000 : 297
misses per kilo : 1883000 : 373
misses per kilo : 1884000 : 356
misses per kilo : 1885000 : 349
misses per kilo : 1886000 : 397
misses per kilo : 1887000 : 565
misses per kilo : 1888000 : 774
misses per kilo : 1889000 : 410
misses per kilo : 1890000 : 394
misses per kilo : 1891000 : 406
misses per kilo : 1892000 : 350
misses per kilo : 1893000 : 333
misses per kilo : 1894000 : 363
misses per kilo : 1895000 : 343
misses per kilo : 1896000 : 346
misses per kilo : 1897000 : 314
misses per kilo : 1898000 : 313
misses per kilo : 1899000 : 602
misses per kilo : 1900000 : 376
misses per kilo : 1901000 : 334
misses per kilo : 1902000 : 344
misses per kilo : 1903000 : 380
misses per kilo : 1904000 : 425
misses per kilo : 1905000 : 440
misses per kilo : 1906000 : 443
misses per kilo : 1907000 : 446
misses per kilo : 1908000 : 407
misses per kilo : 1909000 : 443
misses per kilo : 1910000 : 412
misses per kilo : 1911000 : 405
misses per kilo : 1912000 : 372
misses per kilo : 1913000 : 394
misses per kilo : 1914000 : 350
misses per kilo : 1915000 : 352
misses per kilo : 1916000 : 333
misses per kilo : 1917000 : 322
misses per kilo : 1918000 : 365
misses per kilo : 1919000 : 393
misses per kilo : 1920000 : 367
misses per kilo : 1921000 : 355
misses per kilo : 1922000 : 374
misses per kilo : 1923000 : 383
misses per kilo : 1924000 : 349
misses per kilo : 1925000 : 362
misses per kilo : 1926000 : 443
misses per kilo : 1927000 : 439
misses per kilo : 1928000 : 417
misses per kilo : 1929000 : 413
misses per kilo : 1930000 : 409
misses per kilo : 1931000 : 381
misses per kilo : 1932000 : 382
misses per kilo : 1933000 : 381
misses per kilo : 1934000 : 367
misses per kilo : 1935000 : 363
misses per kilo : 1936000 : 354
misses per kilo : 1937000 : 313
misses per kilo : 1938000 : 328
misses per kilo : 1939000 : 364
misses per kilo : 1940000 : 352
misses per kilo : 1941000 : 375
misses per kilo : 1942000 : 350
misses per kilo : 1943000 : 362
misses per kilo : 1944000 : 351
misses per kilo : 1945000 : 509
misses per kilo : 1946000 : 362
misses per kilo : 1947000 : 368
misses per kilo : 1948000 : 367
misses per kilo : 1949000 : 347
misses per kilo : 1950000 : 359
misses per kilo : 1951000 : 334
misses per kilo : 1952000 : 344
misses per kilo : 1953000 : 374
misses per kilo : 1954000 : 362
misses per kilo : 1955000 : 347
misses per kilo : 1956000 : 348
misses per kilo : 1957000 : 364
misses per kilo : 1958000 : 368
misses per kilo : 1959000 : 388
misses per kilo : 1960000 : 352
misses per kilo : 1961000 : 446
misses per kilo : 1962000 : 379
misses per kilo : 1963000 : 395
misses per kilo : 1964000 : 378
misses per kilo : 1965000 : 363
misses per kilo : 1966000 : 346
misses per kilo : 1967000 : 395
misses per kilo : 1968000 : 398
misses per kilo : 1969000 : 383
misses per kilo : 1970000 : 377
misses per kilo : 1971000 : 378
misses per kilo : 1972000 : 363
misses per kilo : 1973000 : 359
misses per kilo : 1974000 : 372
misses per kilo : 1975000 : 405
misses per kilo : 1976000 : 538
misses per kilo : 1977000 : 497
misses per kilo : 1978000 : 376
misses per kilo : 1979000 : 366
misses per kilo : 1980000 : 369
misses per kilo : 1981000 : 387
misses per kilo : 1982000 : 366
misses per kilo : 1983000 : 357
misses per kilo : 1984000 : 386
misses per kilo : 1985000 : 397
misses per kilo : 1986000 : 406
misses per kilo : 1987000 : 656
misses per kilo : 1988000 : 371
misses per kilo : 1989000 : 436
misses per kilo : 1990000 : 378
misses per kilo : 1991000 : 368
misses per kilo : 1992000 : 432
misses per kilo : 1993000 : 429
misses per kilo : 1994000 : 382
misses per kilo : 1995000 : 362
misses per kilo : 1996000 : 369
Heartbeat CPU 0 instructions: 40000000 cycles: 51130823 heartbeat IPC: 0.254215 cumulative IPC: 0.254215 (Simulation time: 0 hr 1 min 28 sec) 
misses per kilo : 1997000 : 351
misses per kilo : 1998000 : 515
misses per kilo : 1999000 : 382
misses per kilo : 2000000 : 382
misses per kilo : 2001000 : 368
misses per kilo : 2002000 : 386
misses per kilo : 2003000 : 400
misses per kilo : 2004000 : 398
misses per kilo : 2005000 : 379
misses per kilo : 2006000 : 369
misses per kilo : 2007000 : 401
misses per kilo : 2008000 : 402
misses per kilo : 2009000 : 381
misses per kilo : 2010000 : 370
misses per kilo : 2011000 : 384
misses per kilo : 2012000 : 385
misses per kilo : 2013000 : 396
misses per kilo : 2014000 : 367
misses per kilo : 2015000 : 405
misses per kilo : 2016000 : 417
misses per kilo : 2017000 : 403
misses per kilo : 2018000 : 413
misses per kilo : 2019000 : 406
misses per kilo : 2020000 : 405
misses per kilo : 2021000 : 395
misses per kilo : 2022000 : 461
misses per kilo : 2023000 : 471
misses per kilo : 2024000 : 385
misses per kilo : 2025000 : 368
misses per kilo : 2026000 : 351
misses per kilo : 2027000 : 373
misses per kilo : 2028000 : 372
misses per kilo : 2029000 : 366
misses per kilo : 2030000 : 365
misses per kilo : 2031000 : 339
misses per kilo : 2032000 : 327
misses per kilo : 2033000 : 356
misses per kilo : 2034000 : 404
misses per kilo : 2035000 : 393
misses per kilo : 2036000 : 380
misses per kilo : 2037000 : 347
misses per kilo : 2038000 : 363
misses per kilo : 2039000 : 353
misses per kilo : 2040000 : 368
misses per kilo : 2041000 : 365
misses per kilo : 2042000 : 387
misses per kilo : 2043000 : 394
misses per kilo : 2044000 : 382
misses per kilo : 2045000 : 379
misses per kilo : 2046000 : 387
misses per kilo : 2047000 : 393
misses per kilo : 2048000 : 449
misses per kilo : 2049000 : 383
misses per kilo : 2050000 : 356
misses per kilo : 2051000 : 383
misses per kilo : 2052000 : 355
misses per kilo : 2053000 : 337
misses per kilo : 2054000 : 314
misses per kilo : 2055000 : 359
misses per kilo : 2056000 : 356
misses per kilo : 2057000 : 818
misses per kilo : 2058000 : 471
misses per kilo : 2059000 : 299
misses per kilo : 2060000 : 365
misses per kilo : 2061000 : 343
misses per kilo : 2062000 : 369
misses per kilo : 2063000 : 361
misses per kilo : 2064000 : 323
misses per kilo : 2065000 : 380
misses per kilo : 2066000 : 429
misses per kilo : 2067000 : 376
misses per kilo : 2068000 : 342
misses per kilo : 2069000 : 327
misses per kilo : 2070000 : 339
misses per kilo : 2071000 : 386
misses per kilo : 2072000 : 375
misses per kilo : 2073000 : 376
misses per kilo : 2074000 : 346
misses per kilo : 2075000 : 406
misses per kilo : 2076000 : 447
misses per kilo : 2077000 : 427
misses per kilo : 2078000 : 423
misses per kilo : 2079000 : 677
misses per kilo : 2080000 : 437
misses per kilo : 2081000 : 464
misses per kilo : 2082000 : 431
misses per kilo : 2083000 : 428
misses per kilo : 2084000 : 419
misses per kilo : 2085000 : 412
misses per kilo : 2086000 : 406
misses per kilo : 2087000 : 402
misses per kilo : 2088000 : 424
misses per kilo : 2089000 : 416
misses per kilo : 2090000 : 442
misses per kilo : 2091000 : 444
misses per kilo : 2092000 : 442
misses per kilo : 2093000 : 475
misses per kilo : 2094000 : 462
misses per kilo : 2095000 : 462
misses per kilo : 2096000 : 476
misses per kilo : 2097000 : 482
misses per kilo : 2098000 : 492
misses per kilo : 2099000 : 475
misses per kilo : 2100000 : 483
misses per kilo : 2101000 : 470
misses per kilo : 2102000 : 476
misses per kilo : 2103000 : 498
misses per kilo : 2104000 : 481
misses per kilo : 2105000 : 477
misses per kilo : 2106000 : 505
misses per kilo : 2107000 : 515
misses per kilo : 2108000 : 532
misses per kilo : 2109000 : 388
misses per kilo : 2110000 : 347
misses per kilo : 2111000 : 323
misses per kilo : 2112000 : 266
misses per kilo : 2113000 : 349
misses per kilo : 2114000 : 443
misses per kilo : 2115000 : 344
misses per kilo : 2116000 : 465
misses per kilo : 2117000 : 394
misses per kilo : 2118000 : 432
misses per kilo : 2119000 : 462
misses per kilo : 2120000 : 368
misses per kilo : 2121000 : 338
misses per kilo : 2122000 : 502
misses per kilo : 2123000 : 566
misses per kilo : 2124000 : 409
misses per kilo : 2125000 : 425
misses per kilo : 2126000 : 457
misses per kilo : 2127000 : 354
misses per kilo : 2128000 : 346
misses per kilo : 2129000 : 336
misses per kilo : 2130000 : 341
misses per kilo : 2131000 : 386
misses per kilo : 2132000 : 341
misses per kilo : 2133000 : 325
misses per kilo : 2134000 : 337
misses per kilo : 2135000 : 578
misses per kilo : 2136000 : 411
misses per kilo : 2137000 : 368
misses per kilo : 2138000 : 384
misses per kilo : 2139000 : 391
misses per kilo : 2140000 : 380
misses per kilo : 2141000 : 392
misses per kilo : 2142000 : 420
misses per kilo : 2143000 : 422
misses per kilo : 2144000 : 421
misses per kilo : 2145000 : 477
misses per kilo : 2146000 : 410
misses per kilo : 2147000 : 405
misses per kilo : 2148000 : 385
misses per kilo : 2149000 : 375
misses per kilo : 2150000 : 354
misses per kilo : 2151000 : 376
misses per kilo : 2152000 : 335
misses per kilo : 2153000 : 330
misses per kilo : 2154000 : 354
misses per kilo : 2155000 : 443
misses per kilo : 2156000 : 382
misses per kilo : 2157000 : 358
misses per kilo : 2158000 : 387
misses per kilo : 2159000 : 394
misses per kilo : 2160000 : 348
misses per kilo : 2161000 : 354
misses per kilo : 2162000 : 370
misses per kilo : 2163000 : 405
misses per kilo : 2164000 : 427
misses per kilo : 2165000 : 419
misses per kilo : 2166000 : 389
misses per kilo : 2167000 : 444
misses per kilo : 2168000 : 397
misses per kilo : 2169000 : 369
misses per kilo : 2170000 : 392
misses per kilo : 2171000 : 357
misses per kilo : 2172000 : 455
misses per kilo : 2173000 : 335
misses per kilo : 2174000 : 315
misses per kilo : 2175000 : 343
misses per kilo : 2176000 : 351
misses per kilo : 2177000 : 323
misses per kilo : 2178000 : 387
misses per kilo : 2179000 : 329
misses per kilo : 2180000 : 371
misses per kilo : 2181000 : 354
misses per kilo : 2182000 : 363
misses per kilo : 2183000 : 373
misses per kilo : 2184000 : 385
misses per kilo : 2185000 : 376
misses per kilo : 2186000 : 390
misses per kilo : 2187000 : 380
misses per kilo : 2188000 : 359
misses per kilo : 2189000 : 351
misses per kilo : 2190000 : 381
misses per kilo : 2191000 : 394
misses per kilo : 2192000 : 358
misses per kilo : 2193000 : 837
misses per kilo : 2194000 : 485
misses per kilo : 2195000 : 491
misses per kilo : 2196000 : 373
misses per kilo : 2197000 : 378
misses per kilo : 2198000 : 372
misses per kilo : 2199000 : 392
misses per kilo : 2200000 : 381
misses per kilo : 2201000 : 385
misses per kilo : 2202000 : 418
misses per kilo : 2203000 : 405
misses per kilo : 2204000 : 443
misses per kilo : 2205000 : 460
misses per kilo : 2206000 : 343
misses per kilo : 2207000 : 342
misses per kilo : 2208000 : 353
misses per kilo : 2209000 : 390
misses per kilo : 2210000 : 388
misses per kilo : 2211000 : 374
misses per kilo : 2212000 : 354
misses per kilo : 2213000 : 385
misses per kilo : 2214000 : 384
misses per kilo : 2215000 : 411
misses per kilo : 2216000 : 351
misses per kilo : 2217000 : 396
misses per kilo : 2218000 : 369
misses per kilo : 2219000 : 387
misses per kilo : 2220000 : 415
misses per kilo : 2221000 : 380
misses per kilo : 2222000 : 408
misses per kilo : 2223000 : 410
misses per kilo : 2224000 : 383
misses per kilo : 2225000 : 389
misses per kilo : 2226000 : 379
misses per kilo : 2227000 : 389
misses per kilo : 2228000 : 391
misses per kilo : 2229000 : 381
misses per kilo : 2230000 : 410
misses per kilo : 2231000 : 519
misses per kilo : 2232000 : 398
misses per kilo : 2233000 : 412
misses per kilo : 2234000 : 443
misses per kilo : 2235000 : 394
misses per kilo : 2236000 : 385
misses per kilo : 2237000 : 388
misses per kilo : 2238000 : 385
misses per kilo : 2239000 : 374
misses per kilo : 2240000 : 359
misses per kilo : 2241000 : 379
misses per kilo : 2242000 : 375
misses per kilo : 2243000 : 363
misses per kilo : 2244000 : 403
misses per kilo : 2245000 : 419
misses per kilo : 2246000 : 422
misses per kilo : 2247000 : 420
misses per kilo : 2248000 : 411
misses per kilo : 2249000 : 437
misses per kilo : 2250000 : 477
misses per kilo : 2251000 : 434
misses per kilo : 2252000 : 382
misses per kilo : 2253000 : 549
misses per kilo : 2254000 : 527
misses per kilo : 2255000 : 399
misses per kilo : 2256000 : 410
misses per kilo : 2257000 : 437
misses per kilo : 2258000 : 405
misses per kilo : 2259000 : 447
misses per kilo : 2260000 : 440
misses per kilo : 2261000 : 445
misses per kilo : 2262000 : 439
misses per kilo : 2263000 : 426
misses per kilo : 2264000 : 434
misses per kilo : 2265000 : 437
misses per kilo : 2266000 : 447
misses per kilo : 2267000 : 451
misses per kilo : 2268000 : 456
misses per kilo : 2269000 : 457
misses per kilo : 2270000 : 482
misses per kilo : 2271000 : 471
misses per kilo : 2272000 : 576
misses per kilo : 2273000 : 503
misses per kilo : 2274000 : 483
misses per kilo : 2275000 : 516
misses per kilo : 2276000 : 498
misses per kilo : 2277000 : 559
misses per kilo : 2278000 : 436
misses per kilo : 2279000 : 320
misses per kilo : 2280000 : 374
misses per kilo : 2281000 : 342
misses per kilo : 2282000 : 521
misses per kilo : 2283000 : 345
misses per kilo : 2284000 : 444
misses per kilo : 2285000 : 411
misses per kilo : 2286000 : 422
misses per kilo : 2287000 : 421
misses per kilo : 2288000 : 405
misses per kilo : 2289000 : 398
misses per kilo : 2290000 : 357
misses per kilo : 2291000 : 369
misses per kilo : 2292000 : 366
misses per kilo : 2293000 : 411
misses per kilo : 2294000 : 582
misses per kilo : 2295000 : 359
misses per kilo : 2296000 : 340
misses per kilo : 2297000 : 548
misses per kilo : 2298000 : 384
misses per kilo : 2299000 : 364
misses per kilo : 2300000 : 668
misses per kilo : 2301000 : 361
misses per kilo : 2302000 : 347
misses per kilo : 2303000 : 460
misses per kilo : 2304000 : 397
misses per kilo : 2305000 : 363
misses per kilo : 2306000 : 350
misses per kilo : 2307000 : 418
misses per kilo : 2308000 : 439
misses per kilo : 2309000 : 384
misses per kilo : 2310000 : 425
misses per kilo : 2311000 : 380
misses per kilo : 2312000 : 373
misses per kilo : 2313000 : 367
misses per kilo : 2314000 : 356
misses per kilo : 2315000 : 378
misses per kilo : 2316000 : 339
misses per kilo : 2317000 : 338
misses per kilo : 2318000 : 324
misses per kilo : 2319000 : 347
misses per kilo : 2320000 : 414
misses per kilo : 2321000 : 379
misses per kilo : 2322000 : 357
misses per kilo : 2323000 : 521
misses per kilo : 2324000 : 351
misses per kilo : 2325000 : 367
misses per kilo : 2326000 : 340
misses per kilo : 2327000 : 359
misses per kilo : 2328000 : 316
misses per kilo : 2329000 : 362
misses per kilo : 2330000 : 322
misses per kilo : 2331000 : 329
misses per kilo : 2332000 : 330
misses per kilo : 2333000 : 390
misses per kilo : 2334000 : 329
misses per kilo : 2335000 : 341
misses per kilo : 2336000 : 408
misses per kilo : 2337000 : 424
misses per kilo : 2338000 : 339
misses per kilo : 2339000 : 399
misses per kilo : 2340000 : 480
misses per kilo : 2341000 : 846
misses per kilo : 2342000 : 518
misses per kilo : 2343000 : 415
misses per kilo : 2344000 : 391
misses per kilo : 2345000 : 386
misses per kilo : 2346000 : 409
misses per kilo : 2347000 : 399
misses per kilo : 2348000 : 373
misses per kilo : 2349000 : 349
misses per kilo : 2350000 : 384
misses per kilo : 2351000 : 361
misses per kilo : 2352000 : 345
misses per kilo : 2353000 : 365
misses per kilo : 2354000 : 341
misses per kilo : 2355000 : 370
misses per kilo : 2356000 : 388
misses per kilo : 2357000 : 373
misses per kilo : 2358000 : 401
misses per kilo : 2359000 : 384
misses per kilo : 2360000 : 400
misses per kilo : 2361000 : 428
misses per kilo : 2362000 : 375
misses per kilo : 2363000 : 365
misses per kilo : 2364000 : 383
misses per kilo : 2365000 : 391
misses per kilo : 2366000 : 409
misses per kilo : 2367000 : 369
misses per kilo : 2368000 : 394
misses per kilo : 2369000 : 378
misses per kilo : 2370000 : 387
misses per kilo : 2371000 : 382
misses per kilo : 2372000 : 390
misses per kilo : 2373000 : 417
misses per kilo : 2374000 : 387
misses per kilo : 2375000 : 370
misses per kilo : 2376000 : 383
misses per kilo : 2377000 : 448
misses per kilo : 2378000 : 441
misses per kilo : 2379000 : 390
misses per kilo : 2380000 : 397
misses per kilo : 2381000 : 379
misses per kilo : 2382000 : 414
misses per kilo : 2383000 : 373
misses per kilo : 2384000 : 351
misses per kilo : 2385000 : 355
misses per kilo : 2386000 : 341
misses per kilo : 2387000 : 348
misses per kilo : 2388000 : 320
misses per kilo : 2389000 : 316
misses per kilo : 2390000 : 356
misses per kilo : 2391000 : 356
misses per kilo : 2392000 : 397
misses per kilo : 2393000 : 324
misses per kilo : 2394000 : 433
misses per kilo : 2395000 : 380
misses per kilo : 2396000 : 369
misses per kilo : 2397000 : 393
misses per kilo : 2398000 : 382
misses per kilo : 2399000 : 383
misses per kilo : 2400000 : 370
misses per kilo : 2401000 : 373
misses per kilo : 2402000 : 379
misses per kilo : 2403000 : 359
misses per kilo : 2404000 : 333
misses per kilo : 2405000 : 362
misses per kilo : 2406000 : 335
misses per kilo : 2407000 : 350
misses per kilo : 2408000 : 353
misses per kilo : 2409000 : 344
misses per kilo : 2410000 : 404
misses per kilo : 2411000 : 396
misses per kilo : 2412000 : 351
misses per kilo : 2413000 : 360
misses per kilo : 2414000 : 364
misses per kilo : 2415000 : 383
misses per kilo : 2416000 : 356
misses per kilo : 2417000 : 668
misses per kilo : 2418000 : 390
misses per kilo : 2419000 : 398
misses per kilo : 2420000 : 359
misses per kilo : 2421000 : 372
misses per kilo : 2422000 : 333
misses per kilo : 2423000 : 364
misses per kilo : 2424000 : 373
misses per kilo : 2425000 : 377
misses per kilo : 2426000 : 372
misses per kilo : 2427000 : 400
misses per kilo : 2428000 : 364
misses per kilo : 2429000 : 348
misses per kilo : 2430000 : 353
misses per kilo : 2431000 : 360
misses per kilo : 2432000 : 359
misses per kilo : 2433000 : 385
misses per kilo : 2434000 : 394
misses per kilo : 2435000 : 385
misses per kilo : 2436000 : 398
misses per kilo : 2437000 : 380
misses per kilo : 2438000 : 392
misses per kilo : 2439000 : 344
misses per kilo : 2440000 : 377
misses per kilo : 2441000 : 358
misses per kilo : 2442000 : 346
misses per kilo : 2443000 : 363
misses per kilo : 2444000 : 331
misses per kilo : 2445000 : 364
misses per kilo : 2446000 : 324
misses per kilo : 2447000 : 403
misses per kilo : 2448000 : 362
misses per kilo : 2449000 : 351
misses per kilo : 2450000 : 394
misses per kilo : 2451000 : 363
misses per kilo : 2452000 : 382
misses per kilo : 2453000 : 361
misses per kilo : 2454000 : 387
misses per kilo : 2455000 : 376
misses per kilo : 2456000 : 387
misses per kilo : 2457000 : 361
misses per kilo : 2458000 : 490
misses per kilo : 2459000 : 565
misses per kilo : 2460000 : 382
misses per kilo : 2461000 : 365
misses per kilo : 2462000 : 337
misses per kilo : 2463000 : 357
misses per kilo : 2464000 : 386
misses per kilo : 2465000 : 402
misses per kilo : 2466000 : 393
misses per kilo : 2467000 : 397
misses per kilo : 2468000 : 399
misses per kilo : 2469000 : 367
misses per kilo : 2470000 : 382
misses per kilo : 2471000 : 378
misses per kilo : 2472000 : 389
misses per kilo : 2473000 : 347
misses per kilo : 2474000 : 393
misses per kilo : 2475000 : 379
misses per kilo : 2476000 : 390
misses per kilo : 2477000 : 535
misses per kilo : 2478000 : 354
misses per kilo : 2479000 : 356
misses per kilo : 2480000 : 411
misses per kilo : 2481000 : 400
misses per kilo : 2482000 : 408
misses per kilo : 2483000 : 379
misses per kilo : 2484000 : 388
Heartbeat CPU 0 instructions: 50000001 cycles: 88764589 heartbeat IPC: 0.265719 cumulative IPC: 0.25984 (Simulation time: 0 hr 1 min 53 sec) 
misses per kilo : 2485000 : 386
misses per kilo : 2486000 : 371
misses per kilo : 2487000 : 387
misses per kilo : 2488000 : 363
misses per kilo : 2489000 : 332
misses per kilo : 2490000 : 368
misses per kilo : 2491000 : 358
misses per kilo : 2492000 : 364
misses per kilo : 2493000 : 332
misses per kilo : 2494000 : 377
misses per kilo : 2495000 : 354
misses per kilo : 2496000 : 376
misses per kilo : 2497000 : 342
[...]
misses per kilo : 2749000 : 410
misses per kilo : 2750000 : 388
misses per kilo : 2751000 : 374
misses per kilo : 2752000 : 397
misses per kilo : 2753000 : 393
misses per kilo : 2754000 : 390
misses per kilo : 2755000 : 356
misses per kilo : 2756000 : 373
misses per kilo : 2757000 : 364
misses per kilo : 2758000 : 379
misses per kilo : 2759000 : 337
misses per kilo : 2760000 : 327
misses per kilo : 2761000 : 355
misses per kilo : 2762000 : 418
misses per kilo : 2763000 : 405
misses per kilo : 2764000 : 398
misses per kilo : 2765000 : 389
misses per kilo : 2766000 : 407
misses per kilo : 2767000 : 386
misses per kilo : 2768000 : 378
misses per kilo : 2769000 : 402
misses per kilo : 2770000 : 390
misses per kilo : 2771000 : 375
misses per kilo : 2772000 : 405
misses per kilo : 2773000 : 397
misses per kilo : 2774000 : 394
misses per kilo : 2775000 : 388
misses per kilo : 2776000 : 357
misses per kilo : 2777000 : 429
misses per kilo : 2778000 : 388
misses per kilo : 2779000 : 401
misses per kilo : 2780000 : 385
misses per kilo : 2781000 : 383
misses per kilo : 2782000 : 391
misses per kilo : 2783000 : 668
misses per kilo : 2784000 : 405
misses per kilo : 2785000 : 391
misses per kilo : 2786000 : 384
misses per kilo : 2787000 : 415
misses per kilo : 2788000 : 373
misses per kilo : 2789000 : 417
misses per kilo : 2790000 : 405
misses per kilo : 2791000 : 392
misses per kilo : 2792000 : 399
misses per kilo : 2793000 : 378
misses per kilo : 2794000 : 390
misses per kilo : 2795000 : 383
misses per kilo : 2796000 : 414
misses per kilo : 2797000 : 398
misses per kilo : 2798000 : 379
misses per kilo : 2799000 : 370
misses per kilo : 2800000 : 390
misses per kilo : 2801000 : 387
misses per kilo : 2802000 : 384
misses per kilo : 2803000 : 441
misses per kilo : 2804000 : 427
misses per kilo : 2805000 : 867
misses per kilo : 2806000 : 419
misses per kilo : 2807000 : 379
misses per kilo : 2808000 : 368
misses per kilo : 2809000 : 387
misses per kilo : 2810000 : 337
misses per kilo : 2811000 : 352
misses per kilo : 2812000 : 376
misses per kilo : 2813000 : 365
misses per kilo : 2814000 : 494
misses per kilo : 2815000 : 333
misses per kilo : 2816000 : 366
misses per kilo : 2817000 : 389
misses per kilo : 2818000 : 384
misses per kilo : 2819000 : 389
misses per kilo : 2820000 : 402
misses per kilo : 2821000 : 409
misses per kilo : 2822000 : 397
misses per kilo : 2823000 : 385
misses per kilo : 2824000 : 380
misses per kilo : 2825000 : 406
misses per kilo : 2826000 : 416
misses per kilo : 2827000 : 387
misses per kilo : 2828000 : 415
misses per kilo : 2829000 : 384
misses per kilo : 2830000 : 370
misses per kilo : 2831000 : 406
misses per kilo : 2832000 : 402
misses per kilo : 2833000 : 388
misses per kilo : 2834000 : 399
misses per kilo : 2835000 : 387
misses per kilo : 2836000 : 372
misses per kilo : 2837000 : 379
misses per kilo : 2838000 : 412
misses per kilo : 2839000 : 366
misses per kilo : 2840000 : 402
misses per kilo : 2841000 : 423
misses per kilo : 2842000 : 408
misses per kilo : 2843000 : 386
misses per kilo : 2844000 : 381
misses per kilo : 2845000 : 377
misses per kilo : 2846000 : 378
misses per kilo : 2847000 : 384
misses per kilo : 2848000 : 380
misses per kilo : 2849000 : 382
misses per kilo : 2850000 : 384
misses per kilo : 2851000 : 406
misses per kilo : 2852000 : 381
misses per kilo : 2853000 : 370
misses per kilo : 2854000 : 371
misses per kilo : 2855000 : 384
misses per kilo : 2856000 : 390
misses per kilo : 2857000 : 406
misses per kilo : 2858000 : 385
misses per kilo : 2859000 : 383
misses per kilo : 2860000 : 396
misses per kilo : 2861000 : 377
misses per kilo : 2862000 : 379
misses per kilo : 2863000 : 376
misses per kilo : 2864000 : 366
misses per kilo : 2865000 : 368
misses per kilo : 2866000 : 373
misses per kilo : 2867000 : 359
misses per kilo : 2868000 : 393
misses per kilo : 2869000 : 379
misses per kilo : 2870000 : 401
misses per kilo : 2871000 : 399
misses per kilo : 2872000 : 376
misses per kilo : 2873000 : 374
misses per kilo : 2874000 : 353
misses per kilo : 2875000 : 379
misses per kilo : 2876000 : 383
misses per kilo : 2877000 : 372
misses per kilo : 2878000 : 388
misses per kilo : 2879000 : 401
misses per kilo : 2880000 : 590
misses per kilo : 2881000 : 353
misses per kilo : 2882000 : 391
misses per kilo : 2883000 : 353
misses per kilo : 2884000 : 354
misses per kilo : 2885000 : 383
misses per kilo : 2886000 : 369
misses per kilo : 2887000 : 353
misses per kilo : 2888000 : 364
misses per kilo : 2889000 : 352
misses per kilo : 2890000 : 404
misses per kilo : 2891000 : 375
misses per kilo : 2892000 : 366
misses per kilo : 2893000 : 397
misses per kilo : 2894000 : 364
misses per kilo : 2895000 : 379
misses per kilo : 2896000 : 375
misses per kilo : 2897000 : 404
misses per kilo : 2898000 : 396
misses per kilo : 2899000 : 387
misses per kilo : 2900000 : 382
misses per kilo : 2901000 : 380
misses per kilo : 2902000 : 394
misses per kilo : 2903000 : 380
misses per kilo : 2904000 : 394
misses per kilo : 2905000 : 383
misses per kilo : 2906000 : 359
misses per kilo : 2907000 : 380
misses per kilo : 2908000 : 364
misses per kilo : 2909000 : 395
misses per kilo : 2910000 : 392
misses per kilo : 2911000 : 361
misses per kilo : 2912000 : 375
misses per kilo : 2913000 : 372
misses per kilo : 2914000 : 396
misses per kilo : 2915000 : 394
misses per kilo : 2916000 : 358
misses per kilo : 2917000 : 641
misses per kilo : 2918000 : 654
misses per kilo : 2919000 : 365
misses per kilo : 2920000 : 351
misses per kilo : 2921000 : 370
misses per kilo : 2922000 : 388
misses per kilo : 2923000 : 364
misses per kilo : 2924000 : 376
misses per kilo : 2925000 : 365
misses per kilo : 2926000 : 358
misses per kilo : 2927000 : 386
misses per kilo : 2928000 : 362
misses per kilo : 2929000 : 397
misses per kilo : 2930000 : 401
misses per kilo : 2931000 : 369
misses per kilo : 2932000 : 383
misses per kilo : 2933000 : 439
misses per kilo : 2934000 : 444
misses per kilo : 2935000 : 444
misses per kilo : 2936000 : 430
misses per kilo : 2937000 : 454
misses per kilo : 2938000 : 433
misses per kilo : 2939000 : 439
misses per kilo : 2940000 : 431
misses per kilo : 2941000 : 414
misses per kilo : 2942000 : 435
misses per kilo : 2943000 : 401
misses per kilo : 2944000 : 417
misses per kilo : 2945000 : 414
misses per kilo : 2946000 : 427
misses per kilo : 2947000 : 425
misses per kilo : 2948000 : 424
misses per kilo : 2949000 : 456
misses per kilo : 2950000 : 437
misses per kilo : 2951000 : 461
misses per kilo : 2952000 : 482
misses per kilo : 2953000 : 478
misses per kilo : 2954000 : 497
misses per kilo : 2955000 : 461
misses per kilo : 2956000 : 485
misses per kilo : 2957000 : 475
Heartbeat CPU 0 instructions: 60000000 cycles: 124707058 heartbeat IPC: 0.278222 cumulative IPC: 0.265691 (Simulation time: 0 hr 2 min 19 sec) 
Finished CPU 0 instructions: 30000001 cycles: 112912950 cumulative IPC: 0.265691 (Simulation time: 0 hr 2 min 19 sec) 

ChampSim completed all CPUs

Region of Interest Statistics

CPU 0 cumulative IPC: 0.265691 instructions: 30000001 cycles: 112912950
L1D TOTAL     ACCESS:    5499328  HIT:    4114978  MISS:    1384350
L1D LOAD      ACCESS:    4852498  HIT:    3528808  MISS:    1323690
L1D RFO       ACCESS:     646830  HIT:     586170  MISS:      60660
L1D PREFETCH  ACCESS:          0  HIT:          0  MISS:          0
L1D WRITEBACK ACCESS:          0  HIT:          0  MISS:          0
L1D PREFETCH  REQUESTED:          0  ISSUED:          0  USEFUL:          0  USELESS:          0
L1D AVERAGE MISS LATENCY: 115.677 cycles
L1I TOTAL     ACCESS:    3262440  HIT:    3262440  MISS:          0
L1I LOAD      ACCESS:    3262440  HIT:    3262440  MISS:          0
L1I RFO       ACCESS:          0  HIT:          0  MISS:          0
L1I PREFETCH  ACCESS:          0  HIT:          0  MISS:          0
L1I WRITEBACK ACCESS:          0  HIT:          0  MISS:          0
L1I PREFETCH  REQUESTED:          0  ISSUED:          0  USEFUL:          0  USELESS:          0
L1I AVERAGE MISS LATENCY: -nan cycles
L2C TOTAL     ACCESS:    1655866  HIT:     445909  MISS:    1209957
L2C LOAD      ACCESS:    1323690  HIT:     165019  MISS:    1158671
L2C RFO       ACCESS:      60659  HIT:      20907  MISS:      39752
L2C PREFETCH  ACCESS:          0  HIT:          0  MISS:          0
L2C WRITEBACK ACCESS:     271517  HIT:     259983  MISS:      11534
L2C PREFETCH  REQUESTED:          0  ISSUED:          0  USEFUL:          0  USELESS:          0
L2C AVERAGE MISS LATENCY: 103.289 cycles
LLC TOTAL     ACCESS:    1446436  HIT:     869150  MISS:     577286
LLC LOAD      ACCESS:    1158671  HIT:     635152  MISS:     523519
LLC RFO       ACCESS:      39752  HIT:       9230  MISS:      30522
LLC PREFETCH  ACCESS:          0  HIT:          0  MISS:          0
LLC WRITEBACK ACCESS:     248013  HIT:     224768  MISS:      23245
LLC PREFETCH  REQUESTED:          0  ISSUED:          0  USEFUL:          0  USELESS:          0
LLC AVERAGE MISS LATENCY: 154.038 cycles
Major fault: 0 Minor fault: 8928
OPTgen accesses: 35953
OPTgen hits: 23957
OPTgen hit rate: 66.6342


 -2 to   0 : Uni_Add :     303388 : Freq :    303801 : AvTimeinCache :    4.20759 : TotHits      36369
  0 to   2 : Uni_Add :      20476 : Freq :     42066 : AvTimeinCache :    25.0445 : TotHits      56543
  2 to   4 : Uni_Add :      73618 : Freq :    154169 : AvTimeinCache :    27.6946 : TotHits      99585
  4 to   6 : Uni_Add :      45745 : Freq :    104436 : AvTimeinCache :    15.2572 : TotHits      65819
  6 to   8 : Uni_Add :       9580 : Freq :     38120 : AvTimeinCache :    36.3614 : TotHits      58786
  8 to  10 : Uni_Add :       8535 : Freq :     76897 : AvTimeinCache :    81.7949 : TotHits      96362
 10 to  12 : Uni_Add :       8477 : Freq :    192939 : AvTimeinCache :    180.785 : TotHits     212345
 12 to  14 : Uni_Add :       7083 : Freq :    148517 : AvTimeinCache :    155.006 : TotHits     166911
 14 to  16 : Uni_Add :       5872 : Freq :    129531 : AvTimeinCache :    133.296 : TotHits     146683
 16 to  18 : Uni_Add :       4767 : Freq :    115507 : AvTimeinCache :    117.668 : TotHits     130487
 18 to  20 : Uni_Add :       3188 : Freq :     75723 : AvTimeinCache :    100.553 : TotHits      89587
 20 to  22 : Uni_Add :       2439 : Freq :     56405 : AvTimeinCache :     90.647 : TotHits      72034
 22 to  24 : Uni_Add :       2008 : Freq :     48303 : AvTimeinCache :    81.1663 : TotHits      68062
 24 to  26 : Uni_Add :       2015 : Freq :     50288 : AvTimeinCache :    76.7568 : TotHits      63287
 26 to  28 : Uni_Add :       2042 : Freq :     51622 : AvTimeinCache :     71.819 : TotHits      63919
 28 to  30 : Uni_Add :       2210 : Freq :     55814 : AvTimeinCache :    69.4305 : TotHits      63609
 30 to  32 : Uni_Add :       2182 : Freq :     54859 : AvTimeinCache :    66.6647 : TotHits      62054
 32 to  34 : Uni_Add :       2332 : Freq :     56069 : AvTimeinCache :      63.73 : TotHits      61205
 34 to  36 : Uni_Add :       2313 : Freq :     51748 : AvTimeinCache :    61.5653 : TotHits      57018
 36 to  38 : Uni_Add :       2353 : Freq :     50449 : AvTimeinCache :    58.6294 : TotHits      55679
 38 to  40 : Uni_Add :       2209 : Freq :     45460 : AvTimeinCache :    57.0092 : TotHits      48667
 40 to  42 : Uni_Add :       2254 : Freq :     42713 : AvTimeinCache :    55.8745 : TotHits      45182
 42 to  44 : Uni_Add :       2216 : Freq :     40005 : AvTimeinCache :    54.7162 : TotHits      45960
 44 to  46 : Uni_Add :       2110 : Freq :     35180 : AvTimeinCache :      52.45 : TotHits      40514
 46 to  48 : Uni_Add :       2233 : Freq :     34481 : AvTimeinCache :      51.24 : TotHits      38541
 48 to  50 : Uni_Add :       2185 : Freq :     32537 : AvTimeinCache :    50.3627 : TotHits      34908
 50 to  52 : Uni_Add :       2294 : Freq :     32131 : AvTimeinCache :    49.3379 : TotHits      36128
 52 to  54 : Uni_Add :       2216 : Freq :     30146 : AvTimeinCache :    47.6426 : TotHits      35810
 54 to  56 : Uni_Add :       2267 : Freq :     29461 : AvTimeinCache :    46.8085 : TotHits      32522
 56 to  58 : Uni_Add :       2281 : Freq :     28427 : AvTimeinCache :    45.8547 : TotHits      30926
 58 to  60 : Uni_Add :       2223 : Freq :     26786 : AvTimeinCache :    45.0494 : TotHits      29692
 60 to  62 : Uni_Add :       2256 : Freq :     25883 : AvTimeinCache :    44.4979 : TotHits      27460
 62 to  64 : Uni_Add :       2276 : Freq :     26072 : AvTimeinCache :    42.9373 : TotHits      28147
 64 to  66 : Uni_Add :       2185 : Freq :     24154 : AvTimeinCache :    43.4139 : TotHits      25988
 66 to  68 : Uni_Add :       2271 : Freq :     24900 : AvTimeinCache :    42.0905 : TotHits      25685
 68 to  70 : Uni_Add :       2260 : Freq :     23849 : AvTimeinCache :    41.9311 : TotHits      26409
 70 to  72 : Uni_Add :       2158 : Freq :     22305 : AvTimeinCache :     41.782 : TotHits      21870
 72 to  74 : Uni_Add :       2136 : Freq :     22267 : AvTimeinCache :     41.495 : TotHits      22840
 74 to  76 : Uni_Add :       2104 : Freq :     21043 : AvTimeinCache :    40.6043 : TotHits      22539
 76 to  78 : Uni_Add :       2012 : Freq :     19689 : AvTimeinCache :    40.4932 : TotHits      18890
 78 to  80 : Uni_Add :       2007 : Freq :     19550 : AvTimeinCache :    39.6408 : TotHits      20131
 80 to  82 : Uni_Add :       1998 : Freq :     18629 : AvTimeinCache :    39.4136 : TotHits      18042
 82 to  84 : Uni_Add :       1984 : Freq :     18055 : AvTimeinCache :    39.1699 : TotHits      17345
 84 to  86 : Uni_Add :       1940 : Freq :     17229 : AvTimeinCache :    38.3306 : TotHits      17419
 86 to  88 : Uni_Add :       1860 : Freq :     16291 : AvTimeinCache :     38.244 : TotHits      15624
 88 to  90 : Uni_Add :       1827 : Freq :     15460 : AvTimeinCache :    37.3169 : TotHits      14342
 90 to  92 : Uni_Add :       1808 : Freq :     15000 : AvTimeinCache :      37.57 : TotHits      14994
 92 to  94 : Uni_Add :       1734 : Freq :     14752 : AvTimeinCache :    36.7691 : TotHits      15885
 94 to  96 : Uni_Add :       1697 : Freq :     13878 : AvTimeinCache :    36.9825 : TotHits      14899
 96 to  98 : Uni_Add :       1739 : Freq :     13995 : AvTimeinCache :    36.3016 : TotHits      14372
 98 to 100 : Uni_Add :       1617 : Freq :     12795 : AvTimeinCache :     36.999 : TotHits      11778
100 to 102 : Uni_Add :       1632 : Freq :     12589 : AvTimeinCache :    36.8564 : TotHits      13769
102 to 104 : Uni_Add :       1524 : Freq :     11746 : AvTimeinCache :    35.7398 : TotHits      14129
104 to 106 : Uni_Add :       1583 : Freq :     11835 : AvTimeinCache :    35.9906 : TotHits      12858
106 to 108 : Uni_Add :       1546 : Freq :     11336 : AvTimeinCache :    35.7762 : TotHits      11421
108 to 110 : Uni_Add :       1469 : Freq :     10807 : AvTimeinCache :    35.3564 : TotHits      11579
110 to 112 : Uni_Add :       1500 : Freq :     10816 : AvTimeinCache :    34.5824 : TotHits      10758
112 to 114 : Uni_Add :       1471 : Freq :     10241 : AvTimeinCache :    34.5392 : TotHits       9933
114 to 116 : Uni_Add :       1339 : Freq :      9336 : AvTimeinCache :    33.4834 : TotHits      10755
116 to 118 : Uni_Add :       1362 : Freq :      9585 : AvTimeinCache :    34.4712 : TotHits      10949
118 to 120 : Uni_Add :       1346 : Freq :      9124 : AvTimeinCache :    34.3975 : TotHits       9653
120 to 122 : Uni_Add :       1227 : Freq :      8262 : AvTimeinCache :     33.356 : TotHits       9206
122 to 124 : Uni_Add :       1236 : Freq :      8199 : AvTimeinCache :    34.1465 : TotHits       8551
124 to 126 : Uni_Add :       1248 : Freq :      8210 : AvTimeinCache :    34.2554 : TotHits       8290
126 to 128 : Uni_Add :       1180 : Freq :      7698 : AvTimeinCache :    32.9895 : TotHits       7846
128 to 130 : Uni_Add :       1193 : Freq :      7677 : AvTimeinCache :    33.1744 : TotHits       7865
130 to 132 : Uni_Add :       1140 : Freq :      7154 : AvTimeinCache :    31.2686 : TotHits       8306
132 to 134 : Uni_Add :       1193 : Freq :      7337 : AvTimeinCache :    33.0123 : TotHits       7471
134 to 136 : Uni_Add :       1129 : Freq :      6991 : AvTimeinCache :    32.7334 : TotHits       7690
136 to 138 : Uni_Add :       1032 : Freq :      6348 : AvTimeinCache :    32.5209 : TotHits       6226
138 to 140 : Uni_Add :       1030 : Freq :      6237 : AvTimeinCache :    31.3168 : TotHits       7786
140 to 142 : Uni_Add :       1008 : Freq :      6032 : AvTimeinCache :    31.0489 : TotHits       7489
142 to 144 : Uni_Add :        969 : Freq :      5621 : AvTimeinCache :    30.5991 : TotHits       6732
144 to 146 : Uni_Add :        847 : Freq :      4930 : AvTimeinCache :    31.6274 : TotHits       5787
146 to 148 : Uni_Add :        957 : Freq :      5451 : AvTimeinCache :    31.4038 : TotHits       5443
148 to 150 : Uni_Add :        870 : Freq :      4897 : AvTimeinCache :    31.7515 : TotHits       5225
150 to 152 : Uni_Add :        861 : Freq :      4893 : AvTimeinCache :    30.9997 : TotHits       5701
152 to 154 : Uni_Add :        877 : Freq :      4964 : AvTimeinCache :     31.281 : TotHits       5283
154 to 156 : Uni_Add :        821 : Freq :      4503 : AvTimeinCache :    31.7899 : TotHits       4149
156 to 158 : Uni_Add :        796 : Freq :      4377 : AvTimeinCache :    30.3668 : TotHits       5508
158 to 160 : Uni_Add :        752 : Freq :      4095 : AvTimeinCache :    29.5342 : TotHits       4575
160 to 162 : Uni_Add :        768 : Freq :      4207 : AvTimeinCache :     30.821 : TotHits       5040
162 to 164 : Uni_Add :        743 : Freq :      3953 : AvTimeinCache :    31.3781 : TotHits       4524
164 to 166 : Uni_Add :        703 : Freq :      3701 : AvTimeinCache :    29.1825 : TotHits       4038
166 to 168 : Uni_Add :        741 : Freq :      3839 : AvTimeinCache :     31.156 : TotHits       4456
168 to 170 : Uni_Add :        655 : Freq :      3466 : AvTimeinCache :    29.1354 : TotHits       4452
170 to 172 : Uni_Add :        685 : Freq :      3511 : AvTimeinCache :    29.8343 : TotHits       3750
172 to 174 : Uni_Add :        637 : Freq :      3226 : AvTimeinCache :    29.5921 : TotHits       3955
174 to 176 : Uni_Add :        631 : Freq :      3185 : AvTimeinCache :    31.2087 : TotHits       3562
176 to 178 : Uni_Add :        601 : Freq :      3013 : AvTimeinCache :    29.6853 : TotHits       4280
178 to 180 : Uni_Add :        642 : Freq :      3146 : AvTimeinCache :    29.0415 : TotHits       3310
180 to 182 : Uni_Add :        552 : Freq :      2759 : AvTimeinCache :    28.3032 : TotHits       4356
182 to 184 : Uni_Add :        584 : Freq :      2845 : AvTimeinCache :    30.5694 : TotHits       3329
184 to 186 : Uni_Add :        563 : Freq :      2801 : AvTimeinCache :    29.6188 : TotHits       4042
186 to 188 : Uni_Add :        548 : Freq :      2633 : AvTimeinCache :    28.3962 : TotHits       3417
188 to 190 : Uni_Add :        484 : Freq :      2349 : AvTimeinCache :    31.5425 : TotHits       2951
190 to 192 : Uni_Add :        514 : Freq :      2435 : AvTimeinCache :    28.9492 : TotHits       3019
192 to 194 : Uni_Add :        508 : Freq :      2456 : AvTimeinCache :    30.3121 : TotHits       3314
194 to 196 : Uni_Add :        470 : Freq :      2220 : AvTimeinCache :    27.7881 : TotHits       3822
196 to 198 : Uni_Add :        477 : Freq :      2129 : AvTimeinCache :     28.901 : TotHits       2863

DRAM Statistics
 CHANNEL 0
 RQ ROW_BUFFER_HIT:     109657  ROW_BUFFER_MISS:     444380
 DBUS_CONGESTED:      95080
 WQ ROW_BUFFER_HIT:      58168  ROW_BUFFER_MISS:     142434  FULL:          0

 AVG_CONGESTED_CYCLE: 6

CPU 0 Branch Prediction Accuracy: 94.645% MPKI: 7.90253 Average ROB Occupancy at Mispredict: 88.8857

Branch types
NOT_BRANCH: 25572571 85.2419%
BRANCH_DIRECT_JUMP: 1260052 4.20017%
BRANCH_INDIRECT: 0 0%
BRANCH_CONDITIONAL: 3165620 10.5521%
BRANCH_DIRECT_CALL: 767 0.00255667%
BRANCH_INDIRECT_CALL: 0 0%
BRANCH_RETURN: 767 0.00255667%
BRANCH_OTHER: 0 0%

